 ****** HSPICE -- B-2008.09 32-BIT (Aug 26 2008) winnt ******                   
  Copyright (C) 2008 Synopsys, Inc. All Rights Reserved.                        
  Unpublished-rights reserved under US copyright laws.
  This program is protected by law and is subject to the 
  terms and conditions of the license agreement from Synopsys.
  Use of this program is your acceptance to be bound by the 
  license agreement. HSPICE is the trademark of Synopsys, Inc.
  Input File: d:\jephmari files\my academic files\h. 4th year 1st sem\ece170\sim
 Init: read install configuration file: C:\synopsys\Hspice_B-2008.09\meta.cfg
 Init: hspice initialization file: C:\synopsys\Hspice_B-2008.09\hspice.ini





 .lib 'crn65lp_2d5_lk_v1d7.l' tt_rfmos

 .lib 'crn65lp_2d5_lk_v1d7.l' setup_rf

 .param scale_mos_rf=1
 .param mismatchflag_mos_rf=0
 .param sigma_factor_rf=1
 .param noiseflagnrf=0
 .param noiseflagprf=0
 .param noiseflagnrf_mc=0
 .param noiseflagprf_mc=0
 .param sigma_factor_flicker_rf=1
 .endl setup_rf
 .param
 +c1fnrf = 6.85e+041   c2fnrf = 3.16e+025     c3fnrf = 3.16e+005                                         
 +c1fprf = 9.50e+41    c2fprf = 1.55e+24      c3fprf = 1.00e+10                                          
 +is_d_dnw_nrf= 1         x_jsw_d_dnw_nrf= 0         n_d_dnw_nrf= 1         rs_d_dnw_nrf= 1
 +cj_d_dnw_nrf= 1          cjsw_d_dnw_nrf= 1
 +is_d_dnw_prf= 1         x_jsw_d_dnw_prf= 0         n_d_dnw_prf= 1         rs_d_dnw_prf= 1
 +cj_d_dnw_prf= 1          cjsw_d_dnw_prf= 1
 +is_d_prf= 1                 x_jsw_d_prf= 0             n_d_prf= 1             rs_d_prf= 1
 +cj_d_prf= 1                  cjsw_d_prf= 1

 +par1nrf              = agauss(0,1,1)                                     par2nrf              = agauss(0,1,1)                                     
 +par3nrf              = agauss(0,1,1)                                     par4nrf              = agauss(0,1,1)                                     
 +par5nrf              = agauss(0,1,1)                                     par1prf              = agauss(0,1,1)                                     
 +par2prf              = agauss(0,1,1)                                     par3prf              = agauss(0,1,1)                                     
 +par4prf              = agauss(0,1,1)                                     par5prf              = agauss(0,1,1)                                     
 +toxnrf               = 2.6e-09                                           dxlnrf               = 0                                                 
 +dxwnrf               = 0                                                 dvthnrf              = 0                                                 
 +dlvthnrf             = 0                                                 dwvthnrf             = 0                                                 
 +dpvthnrf             = 0                                                 cjnrf                = 0.001251                                          
 +cjswnrf              = 7.9e-11                                           cjswgnrf             = 2.04e-10                                          
 +cgonrf               = 8.28670e-11                                       cglnrf               = 9.96116e-12                                       
 +ddlcnrf              = 7.27377e-09                                       cfnrf                = '1.20e-10 + 5.4e-11'                        
 +drdswnrf             = 0                                                 ntoxnrf              = 1                                                 
 +du0nrf               = 0                                                 dlu0nrf              = 0                                                 
 +dwu0nrf              = 0                                                 dpu0nrf              = 0                                                 
 +deta0nrf             = 0                                                 dleta0nrf            = 0                                                 
 +dweta0nrf            = 0                                                 dpeta0nrf            = 0                                                 
 +dvsatnrf             = 0                                                 dlvsatnrf            = 0                                                 
 +dwvsatnrf            = 0                                                 dpvsatnrf            = 0                                                 
 +dk2nrf               = 0                                                 dlcitnrf             = 0                                                 
 +dwcitnrf             = 0                                                 dlvoffnrf            = 0                                                 
 +dwvoffnrf            = 0                                                 dpvoffnrf            = 0                                                 
 +dnfactornrf          = 0                                                 dwnfactornrf         = 0                                                 
 +dlnfactornrf         = 0                                                 dpnfactornrf         = 0                                                 
 +dpdiblc2nrf          = 0                                                 dla0nrf              = 0                                                 
 +ss_flagrf            = 0                                                 ff_flagrf            = 0                                                 
 +sf_flagrf            = 0                                                 fs_flagrf            = 0                                                 
 +toxprf               = 2.8e-09                                           dxlprf               = 0                                                 
 +dxwprf               = 0                                                 dvthprf              = 0                                                 
 +dlvthprf             = 0                                                 dwvthprf             = 0                                                 
 +dpvthprf             = 0                                                 cjprf                = 0.001077                                          
 +cjswprf              = 6.4e-11                                           cjswgprf             = 2.2e-10                                           
 +cgoprf               = 7.70111e-11                                       cglprf               = 2.69027e-11                                       
 +ddlcprf              = 8.26573e-09                                       cfprf                = '1.20e-10 + 5.6e-11'                        
 +drdswprf             = 0                                                 ntoxprf              = 1                                                 
 +du0prf               = 0                                                 dlu0prf              = 0                                                 
 +dwu0prf              = 0                                                 dpu0prf              = 0                                                 
 +deta0prf             = 0                                                 dleta0prf            = 0                                                 
 +dweta0prf            = 0                                                 dpeta0prf            = 0                                                 
 +dvsatprf             = 0                                                 dlvsatprf            = 0                                                 
 +dwvsatprf            = 0                                                 dpvsatprf            = 0                                                 
 +dk2prf               = 0                                                 dlcitprf             = 0                                                 
 +dwcitprf             = 0                                                 dpcitprf             = 0                                                 
 +dlvoffprf            = 0                                                 dwvoffprf            = 0                                                 
 +dpvoffprf            = 0                                                 dnfactorprf          = 0                                                 
 +dlnfactorprf         = 0                                                 dwnfactorprf         = 0                                                 
 +dpnfactorprf         = 0                                                 dlk2prf              = 0                                                 
 +dwk2prf              = 0                                                 dpk2prf              = 0                                                 
 +dpdiblc2prf          = 0                                                 dlpclmprf            = 0                                                 
 +dppclmprf            = 0                                                 datprf               = 0                                                 
 +dlatprf              = 0                                                 dwatprf              = 0                                                 
 +dpatprf              = 0                                                 
 .lib 'crn65lp_2d5_lk_v1d7.l' rf_mos

 .subckt nmos_rf d g s b lr=0.06e-6 wr=1.0e-6 nr=4 mismatchflag='mismatchflag_mos_rf' sigma=1
 +rbflag=1 sa='0.45u/scale' sb=sa sd='0.24u/scale' sca=0 scb=0 scc=0 scale='scale_mos_rf'

 .param fu0_a1_nr1=-8.65455e-07	fu0_a1_nr2=0.000274009	fu0_a1_nr3=-3.34228e-05
 .param fu0_a2_nr1=1.20978e-05	fu0_a2_nr2=-0.003415875	fu0_a2_nr3=0.001558697
 .param fu0_a3_nr1=2.43583e-05	fu0_a3_nr2=0.000893412	fu0_a3_nr3=0.995715959
 .param fu0_w1='(fu0_a1_nr1*nr*nr+fu0_a1_nr2*nr+fu0_a1_nr3)'
 .param fu0_w2='(fu0_a2_nr1*nr*nr+fu0_a2_nr2*nr+fu0_a2_nr3)'
 .param fu0_w3='(fu0_a3_nr1*nr*nr+fu0_a3_nr2*nr+fu0_a3_nr3)'
 .param fu0_wr_nr='fu0_w1*wr*wr*1e12*scale*scale+fu0_w2*wr*1e6*scale+fu0_w3'
 .param u0_a1=-0.000002 u0_b1=0.00027
 .param u0_a2=0.00154   u0_b2=0.036817
 .param u0_a3=-0.007464 u0_b3=0.064158
 .param fu0_lr='u0_a1*tanh(1e6*(lr*scale-0.06e-6)/u0_b1)*(wr*nr*1e6*scale)*(wr*nr*1e6*scale)+u0_a2*tanh(1e6*(lr*scale-0.06e-6)/u0_b2)*(wr*nr*1e6*scale)+1+u0_a3*tanh(1e6*(lr*scale-0.06e-6)/u0_b3)'
 .param nr_low=1 nrres=1e-3
 .param nr_flag='min(abs((min(nr-1,nr_low)/nr_low-1)),nrres)/nrres'
 .param fu0_rf='nr_flag*1+(1-nr_flag)*fu0_wr_nr*fu0_lr'

 .param a2_11_a=0 a2_11_b=0 a2_11_c=0
 .param a2_12_a=0 a2_12_b=0 a2_12_c=0
 .param a2_13_a=0 a2_13_b=0 a2_13_c=0

 .param a2_21_a=5.08698619045232e-20 a2_21_b=-9.47595951964636e-26 a2_21_c=3.52774017349587e-31
 .param a2_22_a=-5.8726462590359e-19 a2_22_b=1.97923461429067e-24 a2_22_c=-3.1790821056948e-30
 .param a2_23_a=2.11638425335904e-18 a2_23_b=-1.18908167367152e-23 a2_23_c=1.90730010953825e-29

 .param a2_31_a=-1.11729668705811e-12 a2_31_b=2.1080645500897e-18 a2_31_c=-7.7707426235992e-24
 .param a2_32_a=1.30462944685425e-11 a2_32_b=-4.48138864069437e-17 a2_32_c=7.12153232211275e-23
 .param a2_33_a=-4.62499093123479e-11 a2_33_b=2.59899543966624e-16 a2_33_c=-4.17468971645841e-22

 .param a2_41_a=-64887945.2114609 a2_41_b=-495.597281772226 a2_41_c=-0.0018504563255762
 .param a2_42_a=526941010.775607 a2_42_b=3714.97542422023 a2_42_c=0.0169276378469966
 .param a2_43_a=-1138181256.82441 a2_43_b=-7024.8456235281 a2_43_c=-0.0421157603362886

 .param a2_11='a2_11_a*wr*wr*scale*scale+a2_11_b*wr*scale+a2_11_c'
 .param a2_12='a2_12_a*wr*wr*scale*scale+a2_12_b*wr*scale+a2_12_c'
 .param a2_13='a2_13_a*wr*wr*scale*scale+a2_13_b*wr*scale+a2_13_c'

 .param a2_21='a2_21_a*wr*wr*scale*scale+a2_21_b*wr*scale+a2_21_c'
 .param a2_22='a2_22_a*wr*wr*scale*scale+a2_22_b*wr*scale+a2_22_c'
 .param a2_23='a2_23_a*wr*wr*scale*scale+a2_23_b*wr*scale+a2_23_c'

 .param a2_31='a2_31_a*wr*wr*scale*scale+a2_31_b*wr*scale+a2_31_c'
 .param a2_32='a2_32_a*wr*wr*scale*scale+a2_32_b*wr*scale+a2_32_c'
 .param a2_34='a2_33_a*wr*wr*scale*scale+a2_33_b*wr*scale+a2_33_c'

 .param a2_41='a2_41_a*wr*wr*scale*scale+a2_41_b*wr*scale+a2_41_c'
 .param a2_42='a2_42_a*wr*wr*scale*scale+a2_42_b*wr*scale+a2_42_c'
 .param a2_43='a2_43_a*wr*wr*scale*scale+a2_43_b*wr*scale+a2_43_c'

 .param fa2_rf_cal='1+(nr-1)*((a2_11/(lr*lr*lr*scale*scale*scale)+a2_21/(lr*lr*scale*scale)+a2_31/(lr*scale)+a2_41)*abs(log(max(nr-1,1e-5)))*abs(log(max(nr-1,1e-5)))+(a2_12/(lr*lr*lr*scale*scale*scale)+a2_22/(lr*lr*scale*scale)+a2_32/(lr*scale)+a2_42)*abs(log(max(nr-1,1e-5)))+(a2_13/(lr*lr*lr*scale*scale*scale)+a2_23/(lr*lr*scale*scale)+a2_34/(lr*scale)+a2_43))'
 .param fa2_rf='min(1,fa2_rf_cal)'

 .param lspace=0.24u
 .param ledge=0.45u
 .param ledgeeff=0.24u
 .param ns='int(nr/2+1)'
 .param nd='int((nr+1)/2)'
 .param nodd='(nr-int(nr/2)*2)'
 .param dummyflag=1
 .param sleff='ledge+dummyflag*(ledgeeff-ledge)'
 .param sreff='ledge+dummyflag*(ledgeeff-ledge)'
 .param ldios='(ns-2)*lspace+sleff+sreff+nodd*(lspace-sleff)'
 .param ldiod='(ns-1)*lspace+nodd*sleff'
 .param lod='nr*(lr*scale+lspace)+2*ledge-lspace'
 .param sdiofa='(wr*scale*ldios)/scale/scale'
 .param sdiofp='(2*ldios+(2-nodd)*wr*scale*(1-dummyflag))/scale'
 .param ddiofa='(wr*scale*ldiod)/scale/scale'
 .param ddiofp='(2*ldiod+nodd*wr*scale*(1-dummyflag))/scale'
 .param sdiogp='(wr*scale*nr+(2-nodd)*wr*scale*dummyflag)/scale'
 .param ddiogp='(wr*scale*nr+nodd*wr*scale*dummyflag)/scale'
 .param sax='1/(log((ledge+lr*scale/2+nr*(lr*scale+lspace))*(ledge+lr*scale/2+(nr-1)*(lr*scale+lspace))/(ledge+lspace+3*lr*scale/2)/(ledge+lr*scale/2))/(2*nr*(lr*scale+lspace))+1/(nr*(ledge+lr*scale/2)))-lr*scale/2'

 .param rg_po='15.06/12*(wr*scale+3*0.18e-6)/(lr*scale)/nr'
 .param rgco_total_num='2*(1+max(0,int((lr*scale*1e6-0.092)/0.2)))+(nr-1)*(1+max(0,int((2*lr*scale*1e6+0.179)/0.2)))'
 .param rg_co='20/rgco_total_num'
 .param rg_m='3.14603*tanh(nr*(lr*scale*1e6+lspace*1e6/2))+7.53316*(lr*scale*1e6+lspace*1e6/2)**2-11.21528*(lr*scale*1e6+lspace*1e6/2)+0.05371*log(wr*scale*1e6)+1.25'
 .param rg_ch='1789.05*lr*scale*1e6/nr/(wr*scale*1e6)+(-20.61-tanh(log(lr*scale*1e6)-117.12)*(-74.82))*lr*scale*1e6/nr/(wr*scale*1e6*wr*scale*1e6)+3.60'
 .param rgx='rg_po+rg_m+rg_co+rg_ch'

 .param rsx='(0.0337*(lr*scale+lspace)*1e6*(2*ns+1/ns-3) +4.056/ns + 1.68)/(wr*scale*1e6)'
 .param rdx='0.01*(lr*scale+lspace)*1e6*(nd+2/nd) + 0.2687*(wr*scale*1e6+1.41)/nd + 0.201/(0.2+(nd-1)*(lr*scale+lspace)*1e6)'

 .param multi=1 _xw='2e-08+dxwnrf' _xl='-1e-09+dxlnrf' 
 .param _conum='max(1,int((wr*scale-2*0.055e-6)/0.2e-6+1))' _rc_nrsd='26/16.88/_conum'
 .param nrd='lspace/2/nr/(wr*scale+_xw)+_rc_nrsd/nd'
 .param nrs='lspace/2/nr/(wr*scale+_xw)+_rc_nrsd/ns'

 .param cgsx='(0.52*nr*(lr*scale+lspace)*1e6/(0.022*wr*scale*1e6+1.26)+0.27*wr*scale*1e6+0.1)*1e-15'
 .param cgdx='(0.15*nr*(lr*scale+lspace)*1e6+0.05*nr+0.1)*1e-15'
 .param cdsx='(0.1+0.0455*nr*wr*scale/(lr*scale+lspace)+1.6*nr*(lr*scale+lspace)/(wr*scale+9.8e-6))*1e-15'

 .param tnoiax='-368479.7117/(lr*scale*1e6)+24698097.4914'
 .param rnoiax='0.017164/(lr*scale*1e6)+0.47017'

 .param arearatio = 'sigma_factor_flicker_rf*(log(3.873)-min(0,0.63*log(((wr*scale*lr*scale*nr)/(6e-6*0.24e-6*64))**0.5)))'
 +noianrf = 'c1fnrf*2.718**((noiseflagnrf_mc*par1fn_mc+(1-noiseflagnrf_mc)*noiseflagnrf)*arearatio)'
 +noibnrf = 'c2fnrf*2.718**((noiseflagnrf_mc*par1fn_mc+(1-noiseflagnrf_mc)*noiseflagnrf)*arearatio)'
 +noicnrf = 'c3fnrf*2.718**((noiseflagnrf_mc*par1fn_mc+(1-noiseflagnrf_mc)*noiseflagnrf)*arearatio)'

 .param rdbx='1.37+9.74/(wr*scale*1e6)+30.88/nr+121.23/(wr*scale*1e6*nr)'
 .param sobn=1.0u sobe=0.5u sobs=1.0u sobw=0.5u
 .param sbnn=0.32u sbne=0.32u sbns=0.32u sbnw=0.32u
 .param rshsti=600
 .param rendgr=900
 .param rendod=300
 .param podact='2*(wr*scale+lod)'
 .param aodact='wr*scale*lod'
 .param rbstin='pwr(log(1+pwr(1.38749*sobn/lod,1/0.917430)),0.917430)/1.38749'
 .param rbstie='pwr(log(1+pwr(1.38749*sobe/(wr*scale), 1/0.917430)),0.917430)/1.38749'
 .param rbstis='pwr(log(1+pwr(1.38749*sobs/lod,1/0.917430)),0.917430)/1.38749'
 .param rbstiw='pwr(log(1+pwr(1.38749*sobw/(wr*scale), 1/0.917430)),0.917430)/1.38749'
 .param ybstix='1/rbstin+1/rbstie+1/rbstis+1/rbstiw'
 .param rbstinw='63.9641*pwr(sobn/sobw,1.71537)+1.31666*pwr(sobn/lod,0.602897)+0.328170'
 .param rbstine='63.9641*pwr(sobn/sobe,1.71537)+1.31666*pwr(sobn/lod,0.602897)+0.328170'
 .param rbstien='63.9641*pwr(sobe/sobn,1.71537)+1.31666*pwr(sobe/(wr*scale), 0.602897)+0.328170'
 .param rbsties='63.9641*pwr(sobe/sobs,1.71537)+1.31666*pwr(sobe/(wr*scale), 0.602897)+0.328170'
 .param rbstise='63.9641*pwr(sobs/sobe,1.71537)+1.31666*pwr(sobs/lod,0.602897)+0.328170'
 .param rbstisw='63.9641*pwr(sobs/sobw,1.71537)+1.31666*pwr(sobs/lod,0.602897)+0.328170'
 .param rbstiws='63.9641*pwr(sobw/sobs,1.71537)+1.31666*pwr(sobw/(wr*scale), 0.602897)+0.328170'
 .param rbstiwn='63.9641*pwr(sobw/sobn,1.71537)+1.31666*pwr(sobw/(wr*scale), 0.602897)+0.328170'
 .param ybstixy='1/rbstinw+1/rbstine+1/rbstien+1/rbsties+1/rbstise+1/rbstisw+1/rbstiws+1/rbstiwn'
 .param rbsti='rshsti/(ybstix+ybstixy)'
 .param rbod='1e-6*rendod/podact'
 .param rbk='1e-6*rendgr/podact'
 .param rbx='1e-5+rbflag*(rbsti+rbod-rdbx/2+rbk)'


 .param
 +lef='(lr)*scale'
 +wef='(wr)*scale'
 +temp1=par1nrf temp2=par2nrf temp3=par3nrf temp4=par4nrf temp5=par5nrf

 +mis_a_1=0.0035 mis_a_2=0.04 mis_a_3=0
 +mis_b_1=0.0037 mis_b_2=0 mis_b_3=0
 +mis_c_1=1 mis_c_2=0 mis_c_3=0
 +mis_d_1=1.09e-03 mis_d_2=0 mis_d_3=0
 +mis_e_1=0.0030 mis_e_2=0 mis_e_3=0 e_limit=2

 +a='mis_a_1*pwr(lef*1e6,mis_a_2)*pwr(wef*1e6,mis_a_3)'
 +b='mis_b_1*pwr(lef*1e6,mis_b_2)*pwr(wef*1e6,mis_b_3)'
 +c='mis_c_1*pwr(lef*1e6,mis_c_2)*pwr(wef*1e6,mis_c_3)'
 +d='mis_d_1*pwr(lef*1e6,mis_d_2)*pwr(wef*1e6,mis_d_3)'
 +e='mis_e_1*pwr(lef*1e6,mis_e_2)*pwr(wef*1e6,mis_e_3)'

 +fac1='temp1'
 +fac2='temp2'
 +fac3='temp3'
 +fac4='temp4'
 +fac5='c*temp4+sqrt(1-c*c)*temp5'

 +geo_fac ='1/sqrt(multi*nr*lef*wef*1e12)*mismatchflag*sigma'
 +toxmisn='d*geo_fac*toxnrf*fac1'
 +dxlmisn='b*geo_fac*lef*fac2'
 +dxwmisn='-b*geo_fac*wef*fac3'
 +dvthmisn='a*geo_fac*fac4'
 +fu0misn='min(e_limit,1+e*geo_fac*fac5)'
 +lmonte_flagn_ms='1/sqrt(multi*nr)*fac5*mismatchflag*sigma'


 **********************
 rg  g gi   r=rgx
 rs  s si   r=rsx
 rd  d di   r=rdx
 **********************
 cgs_m gi si c=cgsx
 cgd_m gi di c=cgdx
 cds_m di si c=cdsx
 ***** diodes  ****************
 dss  sb  si  ndio_rf_f area=sdiofa pj=sdiofp
 ddd  db  di  ndio_rf_f area=ddiofa pj=ddiofp 
 dsg  sb  si  ndio_rf_g area=1e-30  pj=sdiogp  
 ddg  db  di  ndio_rf_g area=1e-30  pj=ddiogp
 *****************************************************************************
 rb    b  bi  r=rbx   
 rdb  db  bi  r=rdbx  
 rsb  sb  bi  r=rdbx
 m0 di gi si bi nch_rf l=lr w=wr m=nr ad=1e-30 as=1e-30 pd=1e-30 ps=1e-30 sa='sax/scale' sb='sax/scale' sca=sca scb=scb scc=scc 
 + nrd=nrd nrs=nrs

 .model nch_rf.1 nmos	(	level      = 54                  
 +lmin       = '9.999948e-008-(dxlnrf+dxlmisn)'
 +lmax       = 2.401e-007
 +wmin       = '1e-006-(dxwnrf+dxwmisn)'       
 +wmax       = 6.01e-006			
 +version    = 4.5
 +rgeomod    = 1                   binunit    = 2                   paramchk   = 1
 +mobmod     = 0                   capmod     = 2                   igcmod     = 1
 +igbmod     = 1                   diomod     = 1                   rdsmod     = 1
 +rbodymod   = 0                   rgatemod   = 0			permod     = 1
 +acnqsmod   = 0                   trnqsmod   = 0                   tempmod    = 0
 +wpemod     = 1
 +tnom       = 25                  toxe       = 'toxnrf+toxmisn'
 +toxm       = 2.6e-009            dtox       = 2.86e-010           epsrox     = 3.9
 +wint       = 0                   lint       = -5.415e-09          ll         = 2.2652e-05
 +wl         = 0                   lln        = -0.5009             wln        = 1
 +lw         = 0                   ww         = 0                   lwn        = 1
 +wwn        = 1                   lwl        = 0                   wwl        = 0
 +llc        = 2.2652e-05          wlc        = 0                   lwc        = 0
 +wwc        = 0                   lwlc       = 0                   wwlc       = 0
 +xl         = '-1e-09+(dxlnrf+dxlmisn)'       xw         = '2.0e-08+(dxwnrf+dxwmisn)'      dlc        = '-5.415e-09+ddlcnrf'
 +dwc        = 0                   xpart      = 0			toxref     = 3e-009
 +dlcig      = 2.5e-009           
 +vth0       = '0.44295121+dvthnrf+dvthmisn' 
 +lvth0      = '-2.6209825e-009+dlvthnrf'
 +wvth0      = '6.8814839e-010+dwvthnrf'
 +pvth0      = '-5.3326435e-017+dpvthnrf'
 +k1         = 0.31994             k2         = '0.0071010498+dk2nrf' lk2        = -2.6816413e-009
 +wk2        = -1.0512597e-008     pk2        = 1.1552647e-015      k3         = -2.5
 +k3b        = 2.32848             w0         = 0                   dvt0       = 5.6761764
 +dvt1       = 1.2875382           dvt2       = 0                   dvt0w      = 0
 +dvt1w      = 0                   dvt2w      = 0                   dsub       = 0.5
 +minv       = -0.335              voffl      = 0                   dvtp0      = 1.0230918e-006
 +dvtp1      = 1                   lpe0       = 2.3791893e-008      lpeb       = 0
 +web        = -150
 +wec        = -3000
 +scref      = 1e-6
 +kvth0we    = 0.00465
 +lkvth0we   = -12.6e-11
 +wkvth0we   = -19.5e-11
 +pkvth0we   = 1.00e-17
 +k2we       = 0.0018
 +lk2we      = 2e-11
 +wk2we      = -11.5e-11
 +pk2we      = 0                   xj         = 8.6e-008
 +ngate      = 3.5825e+020         ndep       = 6.5e+017            nsd        = 1e+020
 +phin       = 0                   cdsc       = 0                   cdscb      = 0
 +cdscd      = 0                   cit        = 0.00091803764       lcit       = '1.2078269e-010+dlcitnrf'
 +wcit       = '-2.634146e-010+dwcitnrf'
 +pcit       = -2.1573145e-017     voff       = -0.13506072         lvoff      = '-4.3132178e-009+dlvoffnrf'
 +wvoff      = '-2.7301032e-008+dwvoffnrf'
 +pvoff      = '3.8940424e-015+dpvoffnrf'
 +nfactor    = '0.75+dnfactornrf'    eta0       = '0.10402516+deta0nrf' leta0      = '-1.6784547e-010+dleta0nrf'
 +weta0      = '-3.0136772e-008+dweta0nrf'
 +peta0      = '1.6875216e-015+dpeta0nrf'
 +etab       = -0.083491           wetab      = -2.163318e-008      ud         = 0
 +lud        = 0                   wud        = 0                   pud        = 0
 +ku0we      = -0.001
 +lku0we     = -0.8e-10
 +wku0we     = -1.2e-10
 +pku0we     = 0.8e-17
 +u0         = '((0.021434407+du0nrf)*fu0_rf)*fu0misn'
 +lu0        = '((6.0443544e-011+dlu0nrf)*fu0_rf)*fu0misn'
 +wu0        = '((-3.4587047e-010+dwu0nrf)*fu0_rf)*fu0misn'
 +pu0        = '((-1.2567478e-016+dpu0nrf)*fu0_rf)*fu0misn'
 +ua         = -1.3266782e-009     lua        = 1.0131479e-017      wua        = 8.1965417e-017
 +pua        = 9.0410812e-024      ub         = 1.9652232e-018      lub        = -2.0913642e-026
 +wub        = -1.0136089e-025     pub        = -1.5699969e-032     uc         = 8.9870316e-011
 +luc        = -4.391159e-019      wuc        = -2.1717412e-017     puc        = -3.6933379e-024
 +vsat       = '(99812.142+dvsatnrf-195.445*ff_flagrf+312.712*ss_flagrf)'
 +lvsat      = '(-0.00073522225+dlvsatnrf+1.87198e-05*ff_flagrf-2.99517e-05*ss_flagrf)'
 +wvsat      = '(0.013868259+dwvsatnrf+0.00195836*ff_flagrf-0.00313337*ss_flagrf)'
 +pvsat      = '(-1.6704557e-009+dpvsatnrf-1.87572e-10*ff_flagrf+3.00116e-10*ss_flagrf)'
 +a0         = '0.71811517-0.157167*ff_flagrf'
 +la0        = '-2.3073092e-007+dla0nrf+2.80797e-08*ff_flagrf'
 +wa0        = '4.6955716e-007+1.57482e-06*ff_flagrf'
 +pa0        = '-7.5179779e-014-2.81358e-13*ff_flagrf'
 +ags        = 3.2754786
 +lags       = 1.6517638e-007      a1         = 0                   a2         = '1*fa2_rf'
 +b0         = 0                   b1         = 0                   keta       = -0.075402241
 +lketa      = 6.0457198e-009      wketa      = 1.4304311e-008      pketa      = -3.2300294e-015
 +dwg        = 0                   dwb        = 0                   pclm       = -0.026264397
 +lpclm      = 6.643939e-008       wpclm      = -9.1131129e-008     ppclm      = 3.6853398e-014
 +pdiblc1    = 0                   pdiblc2    = '-0.00034397698+dpdiblc2nrf'
 +lpdiblc2   = 1.2872746e-010      wpdiblc2   = 1.3708565e-009      ppdiblc2   = -1.3130201e-016
 +pdiblcb    = 0.059999999         drout      = 0.56                pvag       = 1.2
 +delta      = 0.007595625         pscbe1     = 1e+009              pscbe2     = 1e-020
 +fprout     = 687.13435           pdits      = 0                   pditsd     = 0
 +pditsl     = 0                   rsh        = 15.52                rsw        = '65+drdswnrf'
 +rdw        = '65+drdswnrf'         prwg       = 0                   prwb       = 0
 +wr         = 1                   alpha0     = 4.71e-007           alpha1     = 2.371
 +beta0      = 15.26               agidl      = 1e-008              bgidl      = 1.9e+009
 +cgidl      = 0.808               egidl      = 0.307               aigbacc    = 0.01396
 +bigbacc    = 0.0079101083        cigbacc    = 0.32874864          nigbacc    = 23.684847
 +aigbinv    = 0.35                bigbinv    = 0.03                cigbinv    = 0.006
 +eigbinv    = 1.1                 nigbinv    = 1                   aigc       = 0.01141
 +bigc       = 0.0015058812        cigc       = 0.000625            aigsd      = 0.01089
 +bigsd      = 0.0010507083        cigsd      = 0.069864936         nigc       = 2
 +poxedge    = 1                   pigcd      = 2.565               ntox       = 'ntoxnrf'
 +xrcrg1     = 12                  xrcrg2     = 1                   cgso       = 'cgonrf'
 +cgdo       = 'cgonrf'              cgbo       = 0                   cgdl       = 'cglnrf'
 +cgsl       = 'cglnrf'              clc        = 0			cle        = 0.6
 +cf         = 'cfnrf'               ckappas    = 0.6                 ckappad    = 0.6
 +acde       = 0.4                 moin       = 5.4939              noff       = 2.5494
 +voffcv     = -0.1348             tvoff      = 0.00084753672       ltvoff     = 2.4289737e-011
 +wtvoff     = 2.3148144e-010      ptvoff     = -2.3259213e-017     kt1        = -0.26276292
 +lkt1       = -1.4260915e-009     wkt1       = 3.1419477e-008      pkt1       = -2.0957301e-015
 +kt1l       = 0                   kt2        = -0.11084105         lkt2       = 4.4958996e-009
 +wkt2       = 4.8194868e-008      pkt2       = -4.2018519e-015     ute        = -1.666301
 +lute       = 3.6880252e-008      wute       = 6.9955151e-007      pute       = -6.0042533e-014
 +ua1        = 7.6386417e-010      lua1       = -8.627713e-018      wua1       = 6.5545235e-016
 +pua1       = -7.4091848e-023     ub1        = -1.3948662e-018     lub1       = 6.5156576e-026
 +wub1       = 5.7937342e-026      pub1       = 7.5029719e-033      uc1        = 1.3121607e-010
 +luc1       = -3.8233928e-018     wuc1       = -7.2616327e-017     puc1       = 8.68469e-024
 +prt        = 0                   at         = 52816.746           lat        = -0.0020146013
 +wat        = 0.019682214         pat        = -2.1571044e-009
 +noia = 'noianrf'
 +noib = 'noibnrf'
 +noic = 'noicnrf'
 +em         = 9.05e+006
 +ef         = 0.939854            lintnoi=-5.00e-008
 +jss        = 2.01e-07            jsd        = 2.01e-07
 +jsws       = 4.17e-13            jswd       = 4.17e-13            jswgs      = 4.17e-13
 +jswgd      = 4.17e-13            njs        = 1                   njd        = 1
 +ijthsfwd   = 0.01                ijthdfwd   = 0.01                ijthsrev   = 0.01
 +ijthdrev   = 0.01               
 +bvs        = 9.1                 
 +bvd        = 9.1 
 +xjbvs      = 1                   xjbvd      = 1                   pbs        = 1
 +pbd        = 1                   cjs        = 0			cjd        = 0
 +mjs        = 0.4                 mjd        = 0.4                 pbsws      = 1
 +pbswd      = 1                   cjsws      = 0			cjswd      = 0
 +mjsws      = 0.005               mjswd      = 0.005               pbswgs     = 0.8
 +pbswgd     = 0.8                 cjswgs     = 0			cjswgd     = 0
 +mjswgs     = 0.52                mjswgd     = 0.52                tpb        = 0.002
 +tcj        = 0.0007              tpbsw      = 0.0004              tcjsw      = 0.0005
 +tpbswg     = 2.4e-05             tcjswg     = 0.0015              xtis       = 3
 +xtid       = 3                   jtsswgs    = 6.6e-012            jtsswgd    = 6.6e-012
 +njtsswg    = 4.573               vtsswgs    = 3.593               vtsswgd    = 3.593
 +dmcg       = 6.25e-008           dmci       = 6.75e-008           dmdg       = 0
 +dmcgt      = 0                   dwj        = 0                   xgw        = 0
 +xgl        = -2.11e-008          rshg       = 15.06                  gbmin      = 1e-012
 +rbpb       = 50                  rbpd       = 50                  rbps       = 50
 +rbdb       = 50                  rbsb       = 50                  ngcon      = 1
 +saref      = 4.05e-007
 +sbref      = 4.05e-007
 +wlod       = 2.8e-7
 +kvth0      = 3.0e-009
 +lkvth0     = -2.6e-008
 +wkvth0     = 6.5e-007
 +pkvth0     = 2e-015
 +llodvth    = 1
 +wlodvth    = 1
 +stk2       = 4e-010
 +lodk2      = 0.5
 +lodeta0    = 1
 +ku0        = -2.5e-008
 +pku0     = 8e-14
 +lku0       = 11e-008
 +wku0       = 0
 +llodku0    = 1
 +wlodku0    = 1
 +kvsat      = 0.8
 +steta0     = -4.3e-09
 +tku0       = 0
 +lnfactor   = '0+dlnfactornrf'
 +wnfactor   = '0+dwnfactornrf'      pnfactor   = '0+dpnfactornrf'
 +fnoimod  = 1
 +tnoimod = 1
 +rnoib = 0
 +rnoia = 'rnoiax'
 +tnoia = 'tnoiax'   )

 .model nch_rf.2 nmos	(	level      = 54                  
 +lmin       = 6.0e-008
 +lmax       = '9.999948e-008-(dxlnrf+dxlmisn)'
 +wmin       = '1e-006-(dxwnrf+dxwmisn)'       
 +wmax       = 6.01e-006			
 +version    = 4.5
 +rgeomod    = 1                   binunit    = 2                   paramchk   = 1
 +mobmod     = 0                   capmod     = 2                   igcmod     = 1
 +igbmod     = 1                   diomod     = 1                   rdsmod     = 1
 +rbodymod   = 0                   rgatemod   = 0			permod     = 1
 +acnqsmod   = 0                   trnqsmod   = 0                   tempmod    = 0
 +wpemod     = 1
 +tnom       = 25                  toxe       = 'toxnrf+toxmisn'
 +toxm       = 2.6e-009            dtox       = 2.86e-010           epsrox     = 3.9
 +wint       = 0                   lint       = -5.415e-09          ll         = 2.2652e-05
 +wl         = 0                   lln        = -0.5009             wln        = 1
 +lw         = 0                   ww         = 0                   lwn        = 1
 +wwn        = 1                   lwl        = 0                   wwl        = 0
 +llc        = 2.2652e-05          wlc        = 0                   lwc        = 0
 +wwc        = 0                   lwlc       = 0                   wwlc       = 0
 +xl         = '-1e-09+(dxlnrf+dxlmisn)'       xw         = '2.0e-08+(dxwnrf+dxwmisn)'      dlc        = '-5.415e-09+ddlcnrf'
 +dwc        = 0                   xpart      = 0			toxref     = 3e-009
 +dlcig      = 2.5e-009           
 +vth0       = '0.41095635+dvthnrf+dvthmisn-0.000892538*lmonte_flagn_ms' 
 +lvth0      = '4.4351783e-010+dlvthnrf+8.54876e-11*lmonte_flagn_ms'
 +wvth0      = '-9.3492206e-009+dwvthnrf+9.10389e-10*lmonte_flagn_ms'
 +pvth0      = '9.0806281e-016+dpvthnrf-8.71973e-17*lmonte_flagn_ms'
 +k1         = 0.31994             k2         = '0.0013060071+dk2nrf' lk2        = -2.1265863e-009
 +wk2        = -1.5577795e-008     pk2        = 1.6404145e-015      k3         = -2.5
 +k3b        = 2.32848             w0         = 0                   dvt0       = 5.6761764
 +dvt1       = 1.2875382           dvt2       = 0                   dvt0w      = 0
 +dvt1w      = 0                   dvt2w      = 0                   dsub       = 0.5
 +minv       = -0.335              voffl      = 0                   dvtp0      = 1.0230918e-006
 +dvtp1      = 1                   lpe0       = 2.3791893e-008      lpeb       = 0
 +web        = -150
 +wec        = -3000
 +scref      = 1e-6
 +kvth0we    = 0.00465
 +lkvth0we   = -12.6e-11
 +wkvth0we   = -19.5e-11
 +pkvth0we   = 1.00e-17
 +k2we       = 0.0018
 +lk2we      = 2e-11
 +wk2we      = -11.5e-11
 +pk2we      = 0                   xj         = 8.6e-008
 +ngate      = 3.5825e+020         ndep       = 6.5e+017            nsd        = 1e+020
 +phin       = 0                   cdsc       = 0                   cdscb      = 0
 +cdscd      = 0                   cit        = 9.8452363e-005      lcit       = '1.9928338e-010+dlcitnrf'
 +wcit       = '-1.6453517e-009+dwcitnrf'
 +pcit       = 1.1079017e-016      voff       = -0.13957401         lvoff      = '-3.8809298e-009+dlvoffnrf'
 +wvoff      = '2.9811114e-008+dwvoffnrf'
 +pvoff      = '-1.576216e-015+dpvoffnrf'
 +nfactor    = '0.75+dnfactornrf-0.357015*ss_flagrf+0.357015*ff_flagrf'
 +eta0       = '0.00035892377+deta0nrf-0.00181714*ff_flagrf'
 +leta0      = '9.7614105e-009+dleta0nrf+1.74047e-10*ff_flagrf'
 +weta0      = '1.4881786e-009+dweta0nrf+1.82078e-08*ff_flagrf'
 +peta0      = '-1.3415478e-015+dpeta0nrf-1.74395e-15*ff_flagrf'
 +etab       = -0.081412532        letab      = -1.9907778e-010     wetab      = -4.2459433e-008
 +petab      = 1.9947594e-015      ud         = 0                   lud        = 0
 +wud        = 0                   pud        = 0
 +ku0we      = -0.001
 +lku0we     = -0.8e-10
 +wku0we     = -1.2e-10
 +pku0we     = 0.8e-17
 +u0         = '((0.02158597+du0nrf)*fu0_rf)*fu0misn'
 +lu0        = '((4.5926676e-011+dlu0nrf)*fu0_rf)*fu0misn'
 +wu0        = '((-4.2433976e-009+dwu0nrf)*fu0_rf)*fu0misn'
 +pu0        = '((2.4763426e-016+dpu0nrf)*fu0_rf)*fu0misn'
 +ua         = -1.4077898e-009     lua        = 1.7900429e-017      wua        = 1.1634777e-016
 +pua        = 5.7479051e-024      ub         = 1.7366172e-018      lub        = 9.8246845e-028
 +wub        = -1.7615195e-025     pub        = -8.5364064e-033     uc         = 1.3481702e-010
 +luc        = -4.744156e-018      wuc        = -1.1928716e-016     puc        = 5.6519905e-024
 +vsat       = '(84649.699+dvsatnrf+1470.82*ff_flagrf)'
 +lvsat      = '(0.00071705169+dlvsatnrf-0.000140875*ff_flagrf)'
 +wvsat      = '(0.0039042958+dwvsatnrf-0.00509818*ff_flagrf)'
 +pvsat      = '(-7.1609734e-010+dpvsatnrf+4.88305e-10*ff_flagrf)'
 +a0         = '1.6696481+0.354057*ff_flagrf'
 +la0        = '-3.2186969e-007+dla0nrf-2.08856e-08*ff_flagrf'
 +wa0        = '-2.4506944e-006-3.54765e-06*ff_flagrf'
 +pa0        = '2.0452483e-013+2.09274e-13*ff_flagrf'
 +ags        = '3.3966895+1.45371*ss_flagrf'
 +pags     = '0+1.39516e-12*ss_flagrf'
 +wags     = '0-1.45662e-05*ss_flagrf'
 +lags       = '1.5356668e-007-1.39237e-07*ss_flagrf'
 +a1         = 0                   a2         = '1*fa2_rf'
 +b0         = 0                   b1         = 0                   keta       = -0.1268643
 +lketa      = 1.0974807e-008      wketa      = -3.8117548e-008     pketa      = 1.7909886e-015
 +dwg        = 0                   dwb        = 0                   pclm       = 0.66549591
 +lpclm      = 1.8189585e-010      wpclm      = 2.596499e-007       ppclm      = 3.2552396e-015
 +pdiblc1    = 0                   pdiblc2    = '0.001+dpdiblc2nrf'   pdiblcb    = 0.059999999
 +drout      = 0.56                pvag       = 1.2                 delta      = 0.007595625
 +pscbe1     = 1e+009              pscbe2     = 1e-020              fprout     = 687.13435
 +pdits      = 0                   pditsd     = 0                   pditsl     = 0
 +rsh        = 15.52                rsw        = '65+drdswnrf'         rdw        = '65+drdswnrf'
 +prwg       = 0                   prwb       = 0                   wr         = 1
 +alpha0     = 4.71e-007           alpha1     = 2.371               beta0      = 15.26
 +agidl      = 1e-008              bgidl      = 1.9e+009            cgidl      = 0.808
 +egidl      = 0.307               aigbacc    = 0.01396             bigbacc    = 0.0079101083
 +cigbacc    = 0.32874864          nigbacc    = 23.684847           aigbinv    = 0.35
 +bigbinv    = 0.03                cigbinv    = 0.006               eigbinv    = 1.1
 +nigbinv    = 1                   aigc       = 0.01141             bigc       = 0.0015058812
 +cigc       = 0.000625            aigsd      = 0.01089             bigsd      = 0.0010507083
 +cigsd      = 0.069864936         nigc       = 2                   poxedge    = 1
 +pigcd      = 2.565               ntox       = 'ntoxnrf'             xrcrg1     = 12
 +xrcrg2     = 1                   cgso       = 'cgonrf'              cgdo       = 'cgonrf'
 +cgbo       = 0                   cgdl       = 'cglnrf'              cgsl       = 'cglnrf'
 +clc        = 0			cle        = 0.6                 cf         = 'cfnrf'
 +ckappas    = 0.6                 ckappad    = 0.6                 acde       = 0.4
 +moin       = 5.4939              noff       = 2.5494              voffcv     = -0.1348
 +tvoff      = 0.0011047354        ltvoff     = -3.4501315e-013     wtvoff     = 2.41724e-010
 +ptvoff     = -2.4240255e-017     kt1        = -0.28839204         lkt1       = 1.028692e-009
 +wkt1       = 7.2171788e-008      pkt1       = -5.9990272e-015     kt1l       = 0
 +kt2        = -0.097099973        lkt2       = 3.1797651e-009      wkt2       = 1.7596724e-008
 +pkt2       = -1.2711311e-015     ute        = -1.7723473          lute       = 4.7037475e-008
 +wute       = 5.9158343e-007      pute       = -4.9701243e-014     ua1        = -1.7713297e-010
 +lua1       = 8.1501934e-017      wua1       = 5.6830882e-016      pua1       = -6.5745153e-023
 +ub1        = 2.8502352e-020      lub1       = -7.1175086e-026     wub1       = -2.5700339e-025
 +pub1       = 3.766831e-032       uc1        = 1.4673941e-010      luc1       = -5.3102335e-018
 +wuc1       = 4.4092328e-017      puc1       = -2.4937817e-024     prt        = 0
 +at         = 31783.333           wat        = -0.002839
 +noia = 'noianrf'
 +noib = 'noibnrf'
 +noic = 'noicnrf'
 +em         = 9.05e+006
 +ef         = 0.939854            lintnoi=-5.00e-008
 +jss        = 2.01e-07            jsd        = 2.01e-07
 +jsws       = 4.17e-13            jswd       = 4.17e-13            jswgs      = 4.17e-13
 +jswgd      = 4.17e-13            njs        = 1                   njd        = 1
 +ijthsfwd   = 0.01                ijthdfwd   = 0.01                ijthsrev   = 0.01
 +ijthdrev   = 0.01               
 +bvs        = 9.1                 
 +bvd        = 9.1 
 +xjbvs      = 1                   xjbvd      = 1                   pbs        = 1
 +pbd        = 1                   cjs        = 0			cjd        = 0
 +mjs        = 0.4                 mjd        = 0.4                 pbsws      = 1
 +pbswd      = 1                   cjsws      = 0			cjswd      = 0
 +mjsws      = 0.005               mjswd      = 0.005               pbswgs     = 0.8
 +pbswgd     = 0.8                 cjswgs     = 0			cjswgd     = 0
 +mjswgs     = 0.52                mjswgd     = 0.52                tpb        = 0.002
 +tcj        = 0.0007              tpbsw      = 0.0004              tcjsw      = 0.0005
 +tpbswg     = 2.4e-05             tcjswg     = 0.0015              xtis       = 3
 +xtid       = 3                   jtsswgs    = 6.6e-012            jtsswgd    = 6.6e-012
 +njtsswg    = 4.573               vtsswgs    = 3.593               vtsswgd    = 3.593
 +dmcg       = 6.25e-008           dmci       = 6.75e-008           dmdg       = 0
 +dmcgt      = 0                   dwj        = 0                   xgw        = 0
 +xgl        = -2.11e-008          rshg       = 15.06                  gbmin      = 1e-012
 +rbpb       = 50                  rbpd       = 50                  rbps       = 50
 +rbdb       = 50                  rbsb       = 50                  ngcon      = 1
 +saref      = 4.05e-007
 +sbref      = 4.05e-007
 +wlod       = 2.8e-7
 +kvth0      = 3.0e-009
 +lkvth0     = -2.6e-008
 +wkvth0     = 6.5e-007
 +pkvth0     = 2e-015
 +llodvth    = 1
 +wlodvth    = 1
 +stk2       = 4e-010
 +lodk2      = 0.5
 +lodeta0    = 1
 +ku0        = -2.5e-008
 +pku0     = 8e-14
 +lku0       = 11e-008
 +wku0       = 0
 +llodku0    = 1
 +wlodku0    = 1
 +kvsat      = 0.8
 +steta0     = -4.3e-09
 +tku0       = 0
 +lnfactor   = '0+dlnfactornrf+3.4195e-08*ss_flagrf-3.4195e-08*ff_flagrf'
 +wnfactor   = '0+dwnfactornrf+3.64155e-07*ss_flagrf-3.64155e-07*ff_flagrf'
 +pnfactor   = '0+dpnfactornrf-3.48789e-14*ss_flagrf+3.48789e-14*ff_flagrf'
 +fnoimod  = 1
 +tnoimod = 1
 +rnoib = 0
 +rnoia = 'rnoiax'
 +tnoia = 'tnoiax'    )

 .model nch_rf.3 nmos	(	level      = 54                  
 +lmin       = '9.999948e-008-(dxlnrf+dxlmisn)'
 +lmax       = 2.401e-007
 +wmin       = 0.6e-006			
 +wmax       = '1e-006-(dxwnrf+dxwmisn)'       
 +version    = 4.5
 +rgeomod    = 1                   binunit    = 2                   paramchk   = 1
 +mobmod     = 0                   capmod     = 2                   igcmod     = 1
 +igbmod     = 1                   diomod     = 1                   rdsmod     = 1
 +rbodymod   = 0                   rgatemod   = 0			permod     = 1
 +acnqsmod   = 0                   trnqsmod   = 0                   tempmod    = 0
 +wpemod     = 1
 +tnom       = 25                  toxe       = 'toxnrf+toxmisn'
 +toxm       = 2.6e-009            dtox       = 2.86e-010           epsrox     = 3.9
 +wint       = 0                   lint       = -5.415e-09          ll         = 2.2652e-05
 +wl         = 0                   lln        = -0.5009             wln        = 1
 +lw         = 0                   ww         = 0                   lwn        = 1
 +wwn        = 1                   lwl        = 0                   wwl        = 0
 +llc        = 2.2652e-05          wlc        = 0                   lwc        = 0
 +wwc        = 0                   lwlc       = 0                   wwlc       = 0
 +xl         = '-1e-09+(dxlnrf+dxlmisn)'       xw         = '2.0e-08+(dxwnrf+dxwmisn)'      dlc        = '-5.415e-09+ddlcnrf'
 +dwc        = 0                   xpart      = 0			toxref     = 3e-009
 +dlcig      = 2.5e-009           
 +vth0       = '0.44622988+dvthnrf+dvthmisn' 
 +lvth0      = '-2.4452732e-009+dlvthnrf'
 +wvth0      = '-2.656096e-009+dwvthnrf'
 +pvth0      = '-2.3254991e-016+dpvthnrf'
 +k1         = 0.31994             k2         = '-0.0077298678+dk2nrf'
 +lk2        = -1.5794676e-009     wk2        = 4.6149392e-009      pk2        = 3.1047474e-017
 +k3         = -2.5                k3b        = 2.32848             w0         = 0
 +dvt0       = 5.6761764           dvt1       = 1.2875382           dvt2       = 0
 +dvt0w      = 0                   dvt1w      = 0                   dvt2w      = 0
 +dsub       = 0.5                 minv       = -0.335              voffl      = 0
 +dvtp0      = 1.0230918e-006      dvtp1      = 1                   lpe0       = 2.3791893e-008
 +lpeb       = 0
 +web        = -150
 +wec        = -3000
 +scref      = 1e-6
 +kvth0we    = 0.00465
 +lkvth0we   = -12.6e-11
 +wkvth0we   = -19.5e-11
 +pkvth0we   = 1.00e-17
 +k2we       = 0.0018
 +lk2we      = 2e-11
 +wk2we      = -11.5e-11
 +pk2we      = 0
 +xj         = 8.6e-008            ngate      = 3.5825e+020         ndep       = 6.5e+017
 +nsd        = 1e+020              phin       = 0                   cdsc       = 0
 +cdscb      = 0                   cdscd      = 0                   cit        = 0.00025982624
 +lcit       = '1.1611758e-010+dlcitnrf'
 +wcit       = '4.0796102e-010+dwcitnrf'
 +pcit       = -1.681474e-017      voff       = -0.14572369         lvoff      = '-1.339682e-009+dlvoffnrf'
 +wvoff      = '-1.6424805e-008+dwvoffnrf'
 +pvoff      = '8.6103596e-016+dpvoffnrf'
 +nfactor    = '0.75+dnfactornrf'    eta0       = '0.044118879+deta0nrf'
 +leta0      = '3.7906852e-009+dleta0nrf'
 +weta0      = '3.0967637e-008+dweta0nrf'
 +peta0      = '-2.3501797e-015+dpeta0nrf'
 +etab       = -0.1140465          wetab      = 9.53343e-009        ud         = 0
 +lud        = 0                   wud        = 0                   pud        = 0
 +ku0we      = -0.001
 +lku0we     = -0.8e-10
 +wku0we     = -1.2e-10
 +pku0we     = 0.8e-17
 +u0         = '((0.028615308+du0nrf)*fu0_rf)*fu0misn'
 +lu0        = '((-6.7466293e-010+dlu0nrf)*fu0_rf)*fu0misn'
 +wu0        = '((-7.6703892e-009+dwu0nrf)*fu0_rf)*fu0misn'
 +pu0        = '((6.2413382e-016+dpu0nrf)*fu0_rf)*fu0misn'
 +ua         = -9.0918776e-010     lua        = -1.8640155e-017     wua        = -3.4387484e-016
 +pua        = 3.8388147e-023      ub         = 1.8834271e-018      lub        = -3.1457077e-026
 +wub        = -1.7928862e-026     pub        = -4.9456651e-033     uc         = 1.3529638e-010
 +luc        = -1.0404295e-017     wuc        = -6.8051994e-017     puc        = 6.4711448e-024
 +vsat       = '(106599.68+dvsatnrf+4397.51*ff_flagrf-7036.02*ss_flagrf)'
 +lvsat      = '(-0.0010680136+dlvsatnrf-0.000421195*ff_flagrf+0.000673912*ss_flagrf)'
 +wvsat      = '(0.0069449685+dwvsatnrf-0.00272646*ff_flagrf+0.00436233*ss_flagrf)'
 +pvsat      = '(-1.3310085e-009+dpvsatnrf+2.61141e-10*ff_flagrf-4.17826e-10*ss_flagrf)'
 +a0         = '2.0693451+3.53626*ff_flagrf'
 +la0        = '-7.0903035e-007+dla0nrf-6.31793e-07*ff_flagrf'
 +wa0        = '-9.0869732e-007-2.19248e-06*ff_flagrf'
 +pa0        = '4.1268564e-013+3.91711e-13*ff_flagrf'
 +ags        = 9.449438
 +lags       = -1.2925052e-007     wags       = -6.2974385e-006     pags       = 3.0031544e-013
 +a1         = 0                   a2         = '1*fa2_rf'          b0         = 0
 +b1         = 0                   keta       = -0.072606996        lketa      = 7.5591319e-009
 +wketa      = 1.145316e-008       pketa      = -4.7737097e-015     dwg        = 0
 +dwb        = 0                   pclm       = -0.5754936          lpclm      = 1.3896717e-007
 +wpclm      = 4.6908266e-007      ppclm      = -3.7124937e-014     pdiblc1    = 0
 +pdiblc2    = '0.001+dpdiblc2nrf'   pdiblcb    = 0.059999999         drout      = 0.56
 +pvag       = 1.2                 delta      = 0.007595625         pscbe1     = 1e+009
 +pscbe2     = 1e-020              fprout     = 687.13435           pdits      = 0
 +pditsd     = 0                   pditsl     = 0                   rsh        = 15.52
 +rsw        = '65+drdswnrf'         rdw        = '65+drdswnrf'         prwg       = 0
 +prwb       = 0                   wr         = 1                   alpha0     = 4.71e-007
 +alpha1     = 2.371               beta0      = 15.26               agidl      = 1e-008
 +bgidl      = 1.9e+009            cgidl      = 0.808               egidl      = 0.307
 +aigbacc    = 0.01396             bigbacc    = 0.0079101083        cigbacc    = 0.32874864
 +nigbacc    = 23.684847           aigbinv    = 0.35                bigbinv    = 0.03
 +cigbinv    = 0.006               eigbinv    = 1.1                 nigbinv    = 1
 +aigc       = 0.01141             bigc       = 0.0015058812        cigc       = 0.000625
 +aigsd      = 0.01089             bigsd      = 0.0010507083        cigsd      = 0.069864936
 +nigc       = 2                   poxedge    = 1                   pigcd      = 2.565
 +ntox       = 'ntoxnrf'             xrcrg1     = 12                  xrcrg2     = 1
 +cgso       = 'cgonrf'              cgdo       = 'cgonrf'              cgbo       = 0
 +cgdl       = 'cglnrf'              cgsl       = 'cglnrf'              clc        = 0
 +cle        = 0.6                 cf         = 'cfnrf'               ckappas    = 0.6
 +ckappad    = 0.6                 acde       = 0.4                 moin       = 5.4939
 +noff       = 2.5494              voffcv     = -0.1348             tvoff      = 0.0012033811
 +ltvoff     = 8.1431956e-012      wtvoff     = -1.3147983e-010     ptvoff     = -6.7897403e-018
 +kt1        = -0.23251459         lkt1       = -1.512421e-009      wkt1       = 5.6618813e-010
 +pkt1       = -2.007674e-015      kt1l       = 0                   kt2        = -0.076091779
 +lkt2       = 1.1873834e-009      wkt2       = 1.2750606e-008      pkt2       = -8.2716534e-016
 +ute        = -1.1983736          lute       = 5.1947972e-010      wute       = 2.2226556e-007
 +pute       = -2.2954545e-014     ua1        = 9.8057256e-010      lua1       = -5.1312043e-017
 +wua1       = 4.3440979e-016      pua1       = -3.0553831e-023     ub1        = -1.3227746e-018
 +lub1       = 9.3762373e-026      wub1       = -1.5596133e-026     pub1       = -2.167494e-032
 +uc1        = -3.2938788e-011     luc1       = 2.3022284e-017      wuc1       = 9.4821629e-017
 +puc1       = -1.86979e-023       prt        = 0                   at         = 126159.88
 +lat        = -0.0087122282       wat        = -0.055127782        pat        = 4.6744751e-009
 +noia = 'noianrf'
 +noib = 'noibnrf'
 +noic = 'noicnrf'
 +em         = 9.05e+006
 +ef         = 0.939854            lintnoi=-5.00e-008
 +jss        = 2.01e-07
 +jsd        = 2.01e-07            jsws       = 4.17e-13            jswd       = 4.17e-13
 +jswgs      = 4.17e-13            jswgd      = 4.17e-13            njs        = 1
 +njd        = 1                   ijthsfwd   = 0.01                ijthdfwd   = 0.01
 +ijthsrev   = 0.01                ijthdrev   = 0.01               
 +bvs        = 9.1 
 +bvd        = 9.1                 
 +xjbvs      = 1                   xjbvd      = 1
 +pbs        = 1                   pbd        = 1                   cjs        = 0
 +cjd        = 0			mjs        = 0.4                 mjd        = 0.4
 +pbsws      = 1                   pbswd      = 1                   cjsws      = 0
 +cjswd      = 0			mjsws      = 0.005               mjswd      = 0.005
 +pbswgs     = 0.8                 pbswgd     = 0.8                 cjswgs     = 0
 +cjswgd     = 0			mjswgs     = 0.52                mjswgd     = 0.52
 +tpb        = 0.002               tcj        = 0.0007              tpbsw      = 0.0004
 +tcjsw      = 0.0005              tpbswg     = 2.4e-05             tcjswg     = 0.0015
 +xtis       = 3                   xtid       = 3                   jtsswgs    = 6.6e-012
 +jtsswgd    = 6.6e-012            njtsswg    = 4.573               vtsswgs    = 3.593
 +vtsswgd    = 3.593               dmcg       = 6.25e-008           dmci       = 6.75e-008
 +dmdg       = 0                   dmcgt      = 0                   dwj        = 0
 +xgw        = 0                   xgl        = -2.11e-008          rshg       = 15.06
 +gbmin      = 1e-012              rbpb       = 50                  rbpd       = 50
 +rbps       = 50                  rbdb       = 50                  rbsb       = 50
 +ngcon      = 1
 +saref      = 4.05e-007
 +sbref      = 4.05e-007
 +wlod       = 2.8e-7
 +kvth0      = 3.0e-009
 +lkvth0     = -2.6e-008
 +wkvth0     = 6.5e-007
 +pkvth0     = 2e-015
 +llodvth    = 1
 +wlodvth    = 1
 +stk2       = 4e-010
 +lodk2      = 0.5
 +lodeta0    = 1
 +ku0        = -2.5e-008
 +pku0     = 8e-14
 +lku0       = 11e-008
 +wku0       = 0
 +llodku0    = 1
 +wlodku0    = 1
 +kvsat      = 0.8
 +steta0     = -4.3e-09
 +tku0       = 0
 +lnfactor   = '0+dlnfactornrf'      wnfactor   = '0+dwnfactornrf'      pnfactor   = '0+dpnfactornrf'
 +fnoimod  = 1
 +tnoimod = 1
 +rnoib = 0
 +rnoia = 'rnoiax'
 +tnoia = 'tnoiax'    )

 .model nch_rf.4 nmos	(	level      = 54                  
 +lmin       = 6.0e-008
 +lmax       = '9.999948e-008-(dxlnrf+dxlmisn)'
 +wmin       = 0.6e-006			
 +wmax       = '1e-006-(dxwnrf+dxwmisn)'       
 +version    = 4.5
 +rgeomod    = 1                   binunit    = 2                   paramchk   = 1
 +mobmod     = 0                   capmod     = 2                   igcmod     = 1
 +igbmod     = 1                   diomod     = 1                   rdsmod     = 1
 +rbodymod   = 0                   rgatemod   = 0			permod     = 1
 +acnqsmod   = 0                   trnqsmod   = 0                   tempmod    = 0
 +wpemod     = 1
 +tnom       = 25                  toxe       = 'toxnrf+toxmisn'
 +toxm       = 2.6e-009            dtox       = 2.86e-010           epsrox     = 3.9
 +wint       = 0                   lint       = -5.415e-09          ll         = 2.2652e-05
 +wl         = 0                   lln        = -0.5009             wln        = 1
 +lw         = 0                   ww         = 0                   lwn        = 1
 +wwn        = 1                   lwl        = 0                   wwl        = 0
 +llc        = 2.2652e-05          wlc        = 0                   lwc        = 0
 +wwc        = 0                   lwlc       = 0                   wwlc       = 0
 +xl         = '-1e-09+(dxlnrf+dxlmisn)'       xw         = '2.0e-08+(dxwnrf+dxwmisn)'      dlc        = '-5.415e-09+ddlcnrf'
 +dwc        = 0                   xpart      = 0			toxref     = 3e-009
 +dlcig      = 2.5e-009
 +vth0       = '0.4204795+dvthnrf-0.00994084*ff_flagrf+dvthmisn' 
 +lvth0      = '2.1124771e-011+dlvthnrf+9.52137e-10*ff_flagrf'
 +wvth0      = '-1.9062833e-008+dwvthnrf+1.01397e-08*ff_flagrf'
 +pvth0      = '1.3389037e-015+dpvthnrf-9.7118e-16*ff_flagrf'
 +k1         = 0.31994             k2         = '-0.014947392+dk2nrf' lk2        = -8.8816592e-010
 +wk2        = 1.0006715e-009      pk2        = 3.7722565e-016      k3         = -2.5
 +k3b        = 2.32848             w0         = 0                   dvt0       = 5.6761764
 +dvt1       = 1.2875382           dvt2       = 0                   dvt0w      = 0
 +dvt1w      = 0                   dvt2w      = 0                   dsub       = 0.5
 +minv       = -0.335              voffl      = 0                   dvtp0      = 1.0230918e-006
 +dvtp1      = 1                   lpe0       = 2.3791893e-008      lpeb       = 0
 +web        = -150
 +wec        = -3000
 +scref      = 1e-6
 +kvth0we    = 0.00465
 +lkvth0we   = -12.6e-11
 +wkvth0we   = -19.5e-11
 +pkvth0we   = 1.00e-17
 +k2we       = 0.0018
 +lk2we      = 2e-11
 +wk2we      = -11.5e-11
 +pk2we      = 0                   xj         = 8.6e-008
 +ngate      = 3.5825e+020         ndep       = 6.5e+017            nsd        = 1e+020
 +phin       = 0                   cdsc       = 0                   cdscb      = 0
 +cdscd      = 0                   cit        = -0.0010994598       lcit       = '2.4631136e-010+dlcitnrf'
 +wcit       = '-4.2348127e-010+dwcitnrf'
 +pcit       = 6.2821635e-017      voff       = -0.10368237         lvoff      = '-5.3664414e-009+dlvoffnrf'
 +wvoff      = '-6.7983641e-009+dwvoffnrf'
 +pvoff      = '-6.0994162e-017+dpvoffnrf'
 +nfactor    = '0.75+dnfactornrf-0.745563*ss_flagrf'
 +eta0       = '-0.051871703+deta0nrf+0.0408857*ff_flagrf'
 +leta0      = '1.2984759e-008+dleta0nrf-3.91605e-09*ff_flagrf'
 +weta0      = '5.4763418e-008+dweta0nrf-2.53491e-08*ff_flagrf'
 +peta0      = '-4.6293634e-015+dpeta0nrf+2.42795e-15*ff_flagrf'
 +etab       = -0.16081204         letab      = 4.4792501e-009      wetab      = 3.8528064e-008
 +petab      = -2.7771351e-015     ud         = 0                   lud        = 0
 +wud        = 0                   pud        = 0
 +ku0we      = -0.001
 +lku0we     = -0.8e-10
 +wku0we     = -1.2e-10
 +pku0we     = 0.8e-17
 +u0         = '((0.020073206+du0nrf)*fu0_rf)*fu0misn'
 +lu0        = '((1.4350807e-010+dlu0nrf)*fu0_rf)*fu0misn'
 +wu0        = '((-2.7003787e-009+dwu0nrf)*fu0_rf)*fu0misn'
 +pu0        = '((1.4810125e-016+dpu0nrf)*fu0_rf)*fu0misn'
 +ua         = -6.9856808e-010     lua        = -3.8813519e-017     wua        = -6.0705839e-016
 +pua        = 6.3596131e-023      ub         = 9.4237903e-019      lub        = 5.867745e-026
 +wub        = 6.3397101e-025      pub        = -6.7385287e-032     uc         = -7.2475337e-012
 +luc        = 3.2487032e-018      wuc        = 2.5618679e-017      puc        = -2.5007259e-024
 +vsat       = '(98188.197+dvsatnrf-11977.1*ff_flagrf)'
 +lvsat      = '(-0.00026235326+dlvsatnrf+0.00114717*ff_flagrf)'
 +wvsat      = '(-0.0099049722+dwvsatnrf+0.00861872*ff_flagrf)'
 +pvsat      = '(2.8289571e-010+dpvsatnrf-8.25503e-10*ff_flagrf)'
 +a0         = '-8.937762-7.96629*ff_flagrf'
 +la0        = '3.4524137e-007+dla0nrf+4.69926e-07*ff_flagrf'
 +wa0        = '8.3688639e-006+4.9391e-06*ff_flagrf'
 +pa0        = '-4.7592845e-013-2.91354e-13*ff_flagrf'
 +ags        = '6.4966895-32.7086*ss_flagrf'
 +lags       = '1.5356668e-007+3.13284e-06*ss_flagrf'
 +wags       = '-3.162e-006+2.02793e-05*ss_flagrf'
 +pags       = '-1.6753592e-027-1.94236e-12*ss_flagrf'
 +a1         = 0                   a2         = '1*fa2_rf'          b0         = 0
 +b1         = 0                   keta       = -0.063751471        lketa      = 6.7109408e-009
 +wketa      = -1.0249263e-007     pketa      = 6.1401319e-015      dwg        = 0
 +dwb        = 0                   pclm       = 1.151367            lpclm      = -2.6433266e-008
 +wpclm      = -2.359386e-007      ppclm      = 3.0402704e-014      pdiblc1    = 0
 +pdiblc2    = '0.001+dpdiblc2nrf'   pdiblcb    = 0.059999999         drout      = 0.56
 +pvag       = 1.2                 delta      = 0.007595625         pscbe1     = 1e+009
 +pscbe2     = 1e-020              fprout     = 687.13435           pdits      = 0
 +pditsd     = 0                   pditsl     = 0                   rsh        = 15.52
 +rsw        = '65+drdswnrf'         rdw        = '65+drdswnrf'         prwg       = 0
 +prwb       = 0                   wr         = 1                   alpha0     = 4.71e-007
 +alpha1     = 2.371               beta0      = 15.26               agidl      = 1e-008
 +bgidl      = 1.9e+009            cgidl      = 0.808               egidl      = 0.307
 +aigbacc    = 0.01396             bigbacc    = 0.0079101083        cigbacc    = 0.32874864
 +nigbacc    = 23.684847           aigbinv    = 0.35                bigbinv    = 0.03
 +cigbinv    = 0.006               eigbinv    = 1.1                 nigbinv    = 1
 +aigc       = 0.01141             bigc       = 0.0015058812        cigc       = 0.000625
 +aigsd      = 0.01089             bigsd      = 0.0010507083        cigsd      = 0.069864936
 +nigc       = 2                   poxedge    = 1                   pigcd      = 2.565
 +ntox       = 'ntoxnrf'             xrcrg1     = 12                  xrcrg2     = 1
 +cgso       = 'cgonrf'              cgdo       = 'cgonrf'              cgbo       = 0
 +cgdl       = 'cglnrf'              cgsl       = 'cglnrf'              clc        = 0
 +cle        = 0.6                 cf         = 'cfnrf'               ckappas    = 0.6
 +ckappad    = 0.6                 acde       = 0.4                 moin       = 5.4939
 +noff       = 2.5494              voffcv     = -0.1348             tvoff      = 0.0026410329
 +ltvoff     = -1.2955653e-010     wtvoff     = -1.3252994e-009     ptvoff     = 1.0755549e-016
 +kt1        = -0.098431959        lkt1       = -1.435499e-008      wkt1       = -1.215875e-007
 +pkt1       = 9.6923282e-015      kt1l       = 0                   kt2        = -0.10354588
 +lkt2       = 3.8169646e-009      wkt2       = 2.4171549e-008      pkt2       = -1.9210747e-015
 +ute        = -1.8040518          lute       = 5.8531941e-008      wute       = 6.2392198e-007
 +pute       = -6.1425598e-014     ua1        = -2.5114942e-009     lua1       = 2.8316161e-016
 +wua1       = 2.9493573e-015      pua1       = -2.7143802e-022     ub1        = 2.4252596e-018
 +lub1       = -2.6522809e-025     wub1       = -2.7016958e-024     pub1       = 2.3560237e-031
 +uc1        = 5.2895289e-010      luc1       = -3.0796263e-017     wuc1       = -3.4576542e-016
 +puc1       = 2.3501968e-023      prt        = 0                   at         = 35200
 +wat        = -0.006324
 +noia = 'noianrf'
 +noib = 'noibnrf'
 +noic = 'noicnrf'
 +em         = 9.05e+006
 +ef         = 0.939854            lintnoi=-5.00e-008
 +jss        = 2.01e-07            jsd        = 2.01e-07            jsws       = 4.17e-13
 +jswd       = 4.17e-13            jswgs      = 4.17e-13            jswgd      = 4.17e-13
 +njs        = 1                   njd        = 1                   ijthsfwd   = 0.01
 +ijthdfwd   = 0.01                ijthsrev   = 0.01                ijthdrev   = 0.01
 +bvs        = 9.1                 
 +bvd        = 9.1                 
 +xjbvs      = 1
 +xjbvd      = 1                   pbs        = 1                   pbd        = 1
 +cjs        = 0			cjd        = 0			mjs        = 0.4
 +mjd        = 0.4                 pbsws      = 1                   pbswd      = 1
 +cjsws      = 0			cjswd      = 0			mjsws      = 0.005
 +mjswd      = 0.005               pbswgs     = 0.8                 pbswgd     = 0.8
 +cjswgs     = 0			cjswgd     = 0			mjswgs     = 0.52
 +mjswgd     = 0.52                tpb        = 0.002               tcj        = 0.0007
 +tpbsw      = 0.0004              tcjsw      = 0.0005              tpbswg     = 2.4e-05
 +tcjswg     = 0.0015              xtis       = 3                   xtid       = 3
 +jtsswgs    = 6.6e-012            jtsswgd    = 6.6e-012            njtsswg    = 4.573
 +vtsswgs    = 3.593               vtsswgd    = 3.593               dmcg       = 6.25e-008
 +dmci       = 6.75e-008           dmdg       = 0                   dmcgt      = 0
 +dwj        = 0                   xgw        = 0                   xgl        = -2.11e-008
 +rshg       = 15.06                  gbmin      = 1e-012              rbpb       = 50
 +rbpd       = 50                  rbps       = 50                  rbdb       = 50
 +rbsb       = 50                  ngcon      = 1
 +saref      = 4.05e-007
 +sbref      = 4.05e-007
 +wlod       = 2.8e-7
 +kvth0      = 3.0e-009
 +lkvth0     = -2.6e-008
 +wkvth0     = 6.5e-007
 +pkvth0     = 2e-015
 +llodvth    = 1
 +wlodvth    = 1
 +stk2       = 4e-010
 +lodk2      = 0.5
 +lodeta0    = 1
 +ku0        = -2.5e-008
 +pku0     = 8e-14
 +lku0       = 11e-008
 +wku0       = 0
 +llodku0    = 1
 +wlodku0    = 1
 +kvsat      = 0.8
 +steta0     = -4.3e-09
 +tku0       = 0
 +lnfactor   = '0+dlnfactornrf+7.14103e-08*ss_flagrf'
 +wnfactor   = '0+dwnfactornrf+7.60474e-07*ss_flagrf'
 +pnfactor   = '0+dpnfactornrf-7.28385e-14*ss_flagrf'
 +fnoimod  = 1
 +tnoimod = 1
 +rnoib = 0
 +rnoia = 'rnoiax'
 +tnoia = 'tnoiax'    )

 .model ndio_rf_f d (						   level  = 3
 +is     = 2.01e-07                ikr    = 1e10
 +n      = 1                       bv     = 9.1                     ibv    = 0.03
 +jsw    = 4.17e-13                cj     = 'cjnrf'                 pj     = 7.2e-4
 +mj     = 0.4                     fc     = 0                       cjsw   = 'cjswnrf'
 +area   = 3.08e-8                 mjsw   = 0.005                   tlevc  = 1
 +cta    = 0.0007                  ctp    = 0.0005                  
 +tcv    = -0.90e-03               tlev   = 1                       xti    = 3
 +eg     = 1.17                    php    = 1                       pb     = 1
 +ik     = 1e20                    tpb    = 0.002                   tref   = 25
 +tphp   = 0.0004                  fcs    = 0			   )

 .model ndio_rf_g d (						   level  = 3
 +is     = 2.01e-07                ikr    = 1e10
 +n      = 1                       bv     = 9.1                     ibv    = 0.03
 +jsw    = 4.17e-13                cj     = 'cjnrf'                 pj     = 7.2e-4
 +mj     = 0.4                     fc     = 0                       cjsw   = 'cjswgnrf'
 +area   = 3.08e-8                 mjsw   = 0.52                    tlevc  = 1
 +cta    = 0.0007                  ctp    = 0.0015                  
 +tcv    = -0.90e-03               tlev   = 1                       xti    = 3
 +eg     = 1.17                    php    = 0.8                     pb     = 1
 +ik     = 1e20                    tpb    = 0.002                   tref   = 25
 +tphp   = 2.4e-05                 fcs    = 0			   )

 .ends nmos_rf

 .subckt pmos_rf d g s b lr=0.06e-6 wr=1.0e-6 nr=4 mismatchflag='mismatchflag_mos_rf' sigma=1
 +rbflag=1 sa='0.45u/scale' sb=sa sd='0.24u/scale' sca=0 scb=0 scc=0 scale='scale_mos_rf'

 .param fu0_a1_nr1=8.13838e-06	fu0_a1_nr2=-0.000233461	fu0_a1_nr3=0.000404607  
 .param fu0_a2_nr1=-4.52731e-05	fu0_a2_nr2=0.000715575	fu0_a2_nr3=-0.001882579 
 .param fu0_a3_nr1=3.88781e-05	fu0_a3_nr2=0.000129664	fu0_a3_nr3=1.004700184  
 .param fu0_w1='(fu0_a1_nr1*nr*nr+fu0_a1_nr2*nr+fu0_a1_nr3)'
 .param fu0_w2='(fu0_a2_nr1*nr*nr+fu0_a2_nr2*nr+fu0_a2_nr3)'
 .param fu0_w3='(fu0_a3_nr1*nr*nr+fu0_a3_nr2*nr+fu0_a3_nr3)'
 .param fu0_wr_nr='fu0_w1*wr*wr*1e12*scale*scale+fu0_w2*wr*1e6*scale+fu0_w3'
 .param u0_a1=-6.7328e-07 u0_b1=0.135633
 .param u0_a2=0.000336   u0_b2=0.083532
 .param u0_a3=-22.3405 u0_b3=483.1155
 .param fu0_lr='u0_a1*tanh(1e6*(lr*scale-0.06e-6)/u0_b1)*(wr*nr*1e6*scale)*(wr*nr*1e6*scale)+u0_a2*tanh(1e6*(lr*scale-0.06e-6)/u0_b2)*(wr*nr*1e6*scale)+1+u0_a3*tanh(1e6*(lr*scale-0.06e-6)/u0_b3)'
 .param nr_low=1 nrres=1e-3
 .param nr_flag='min(abs((min(nr-1,nr_low)/nr_low-1)),nrres)/nrres'
 .param fu0_rf='nr_flag*1+(1-nr_flag)*fu0_wr_nr*fu0_lr'

 .param lspace=0.24u
 .param ledge=0.45u
 .param ledgeeff=0.24u
 .param ns='int(nr/2+1)'
 .param nd='int((nr+1)/2)'
 .param nodd='(nr-int(nr/2)*2)'
 .param dummyflag=1
 .param sleff='ledge+dummyflag*(ledgeeff-ledge)'
 .param sreff='ledge+dummyflag*(ledgeeff-ledge)'
 .param ldios='(ns-2)*lspace+sleff+sreff+nodd*(lspace-sleff)'
 .param ldiod='(ns-1)*lspace+nodd*sleff'
 .param lod='nr*(lr*scale+lspace)+2*ledge-lspace'
 .param sdiofa='(wr*scale*ldios)/scale/scale'
 .param sdiofp='(2*ldios+(2-nodd)*wr*scale*(1-dummyflag))/scale'
 .param ddiofa='(wr*scale*ldiod)/scale/scale'
 .param ddiofp='(2*ldiod+nodd*wr*scale*(1-dummyflag))/scale'
 .param sdiogp='(wr*scale*nr+(2-nodd)*wr*scale*dummyflag)/scale'
 .param ddiogp='(wr*scale*nr+nodd*wr*scale*dummyflag)/scale'
 .param sax='1/(log((ledge+lr*scale/2+nr*(lr*scale+lspace))*(ledge+lr*scale/2+(nr-1)*(lr*scale+lspace))/(ledge+lspace+3*lr*scale/2)/(ledge+lr*scale/2))/(2*nr*(lr*scale+lspace))+1/(nr*(ledge+lr*scale/2)))-lr*scale/2'

 .param rg_po='14.93/12*(wr*scale+3*0.18e-6)/(lr*scale)/nr'
 .param rgco_total_num='2*(1+max(0,int((lr*scale*1e6-0.092)/0.2)))+(nr-1)*(1+max(0,int((2*lr*scale*1e6+0.179)/0.2)))'
 .param rg_co='20/rgco_total_num'
 .param rg_m='3.14603*tanh(nr*(lr*scale*1e6+lspace*1e6/2))+7.53316*(lr*scale*1e6+lspace*1e6/2)**2-11.21528*(lr*scale*1e6+lspace*1e6/2)+0.05371*log(wr*scale*1e6)+1.25'
 .param rg_ch='2104.66*lr*scale*1e6/nr/(wr*scale*1e6)+(-25.70-tanh(log(lr*scale*1e6)-86.15)*(-71.29))*lr*scale*1e6/nr/(wr*scale*1e6*wr*scale*1e6)+1.6'
 .param rgx='rg_po+rg_m+rg_co+rg_ch'

 .param rsx='(0.0337*(lr*scale+lspace)*1e6*(2*ns+1/ns-3) +4.056/ns + 1.68)/(wr*scale*1e6)'
 .param rdx='0.01*(lr*scale+lspace)*1e6*(nd+2/nd) + 0.2687*(wr*scale*1e6+1.41)/nd + 0.201/(0.2+(nd-1)*(lr*scale+lspace)*1e6)'



 .param multi=1 _xw='2e-08+dxwprf' _xl='2e-09+dxlprf' 
 .param _conum='max(1,int((wr*scale-2*0.055e-6)/0.2e-6+1))' _rc_nrsd='26/16.88/_conum'
 .param nrd='lspace/2/nr/(wr*scale+_xw)+_rc_nrsd/nd'
 .param nrs='lspace/2/nr/(wr*scale+_xw)+_rc_nrsd/ns'

 .param cgsx='(0.52*nr*(lr*scale+lspace)*1e6/(0.022*wr*scale*1e6+1.26)+0.27*wr*scale*1e6+0.1)*1e-15'
 .param cgdx='(0.15*nr*(lr*scale+lspace)*1e6+0.05*nr+0.1)*1e-15'
 .param cdsx='(0.1+0.0455*nr*wr*scale/(lr*scale+lspace)+1.6*nr*(lr*scale+lspace)/(wr*scale+9.8e-6))*1e-15'

 .param tnoiax='1596810.8947/(lr*scale*1e6)+54184526.6268'
 .param rnoiax='0.0099181/(lr*scale*1e6)+0.50551'

 .param arearatio = 'sigma_factor_flicker_rf*(log(3.873)-min(0,0.58*log(((wr*scale*lr*scale*nr)/(6e-6*0.24e-6*64))**0.5)))'
 +noiaprf = 'c1fprf*2.718**((noiseflagprf_mc*par1fn_mc+(1-noiseflagprf_mc)*noiseflagprf)*arearatio)'
 +noibprf = 'c2fprf*2.718**((noiseflagprf_mc*par1fn_mc+(1-noiseflagprf_mc)*noiseflagprf)*arearatio)'
 +noicprf = 'c3fprf*2.718**((noiseflagprf_mc*par1fn_mc+(1-noiseflagprf_mc)*noiseflagprf)*arearatio)'

 .param rdbx='1.63+6.46/(wr*scale*1e6)+15.36/nr+61.74/(wr*scale*1e6*nr)'
 .param sobn=1.0u sobe=0.5u sobs=1.0u sobw=0.5u
 .param sbnn=0.32u sbne=0.32u sbns=0.32u sbnw=0.32u
 .param rshsti=250
 .param rendgr=300
 .param rendod=150
 .param podact='2*(wr*scale+lod)'
 .param aodact='wr*scale*lod'
 .param rbstin='pwr(log(1+pwr(1.38749*sobn/lod,1/0.917430)),0.917430)/1.38749'
 .param rbstie='pwr(log(1+pwr(1.38749*sobe/(wr*scale), 1/0.917430)),0.917430)/1.38749'
 .param rbstis='pwr(log(1+pwr(1.38749*sobs/lod,1/0.917430)),0.917430)/1.38749'
 .param rbstiw='pwr(log(1+pwr(1.38749*sobw/(wr*scale), 1/0.917430)),0.917430)/1.38749'
 .param ybstix='1/rbstin+1/rbstie+1/rbstis+1/rbstiw'
 .param rbstinw='63.9641*pwr(sobn/sobw,1.71537)+1.31666*pwr(sobn/lod,0.602897)+0.328170'
 .param rbstine='63.9641*pwr(sobn/sobe,1.71537)+1.31666*pwr(sobn/lod,0.602897)+0.328170'
 .param rbstien='63.9641*pwr(sobe/sobn,1.71537)+1.31666*pwr(sobe/(wr*scale), 0.602897)+0.328170'
 .param rbsties='63.9641*pwr(sobe/sobs,1.71537)+1.31666*pwr(sobe/(wr*scale), 0.602897)+0.328170'
 .param rbstise='63.9641*pwr(sobs/sobe,1.71537)+1.31666*pwr(sobs/lod,0.602897)+0.328170'
 .param rbstisw='63.9641*pwr(sobs/sobw,1.71537)+1.31666*pwr(sobs/lod,0.602897)+0.328170'
 .param rbstiws='63.9641*pwr(sobw/sobs,1.71537)+1.31666*pwr(sobw/(wr*scale), 0.602897)+0.328170'
 .param rbstiwn='63.9641*pwr(sobw/sobn,1.71537)+1.31666*pwr(sobw/(wr*scale), 0.602897)+0.328170'
 .param ybstixy='1/rbstinw+1/rbstine+1/rbstien+1/rbsties+1/rbstise+1/rbstisw+1/rbstiws+1/rbstiwn'
 .param rbsti='rshsti/(ybstix+ybstixy)'
 .param rbod='1e-6*rendod/podact'
 .param rbk='1e-6*rendgr/podact'
 .param rbx='1e-5+rbflag*(rbsti+rbod-rdbx/2+rbk)'


 .param
 +lef='(lr)*scale'
 +wef='(wr)*scale'
 +temp1=par1prf temp2=par2prf temp3=par3prf temp4=par4prf temp5=par5prf

 +mis_a_1=-0.0020 mis_a_2=0 mis_a_3=-0.025
 +mis_b_1=0.0036 mis_b_2=0.04 mis_b_3=-0.04
 +mis_c_1=1 mis_c_2=0 mis_c_3=0
 +mis_d_1=1.02e-03 mis_d_2=0 mis_d_3=0
 +mis_e_1=0.0020 mis_e_2=0 mis_e_3=0 e_limit=2

 +a='mis_a_1*pwr(lef*1e6,mis_a_2)*pwr(wef*1e6,mis_a_3)'
 +b='mis_b_1*pwr(lef*1e6,mis_b_2)*pwr(wef*1e6,mis_b_3)'
 +c='mis_c_1*pwr(lef*1e6,mis_c_2)*pwr(wef*1e6,mis_c_3)'
 +d='mis_d_1*pwr(lef*1e6,mis_d_2)*pwr(wef*1e6,mis_d_3)'
 +e='mis_e_1*pwr(lef*1e6,mis_e_2)*pwr(wef*1e6,mis_e_3)'

 +fac1='temp1'
 +fac2='temp2'
 +fac3='temp3'
 +fac4='temp4'
 +fac5='c*temp4+sqrt(1-c*c)*temp5'

 +geo_fac ='1/sqrt(multi*nr*lef*wef*1e12)*mismatchflag*sigma'
 +toxmisp='d*geo_fac*toxprf*fac1'
 +dxlmisp='b*geo_fac*lef*fac2'
 +dxwmisp='-b*geo_fac*wef*fac3'
 +dvthmisp='a*geo_fac*fac4'
 +fu0misp='min(e_limit,1+e*geo_fac*fac5)'
 +lmonte_flagp_ms='1/sqrt(multi*nr)*fac5*mismatchflag*sigma'


 **********************
 rg  g gi   r=rgx
 rs  s si   r=rsx
 rd  d di   r=rdx
 **********************
 cgs_m gi si c=cgsx
 cgd_m gi di c=cgdx
 cds_m di si c=cdsx
 ***** diodes  ****************
 dss  si  sb  pdio_rf_f area=sdiofa pj=sdiofp
 ddd  di  db  pdio_rf_f area=ddiofa pj=ddiofp 
 dsg  si  sb  pdio_rf_g area=1e-30  pj=sdiogp  
 ddg  di  db  pdio_rf_g area=1e-30  pj=ddiogp
 *****************************************************************************
 rb    b  bi  r=rbx   
 rdb  db  bi  r=rdbx  
 rsb  sb  bi  r=rdbx

 m0 di gi si bi pch_rf l=lr w=wr m=nr ad=1e-30 as=1e-30 pd=1e-30 ps=1e-30 sa='sax/scale' sb='sax/scale' sca=sca scb=scb scc=scc
 + nrd=nrd nrs=nrs

 .model pch_rf.1 pmos	(	level      = 54                  
 +lmin       = '9.999946e-008-(dxlprf+dxlmisp)'
 +lmax       = 2.401e-007
 +wmin       = '1e-006-(dxwprf+dxwmisp)'       
 +wmax       = 6.01e-006			
 +version    = 4.5
 +rgeomod    = 1                   binunit    = 2                   paramchk   = 1
 +mobmod     = 0                   capmod     = 2                   igcmod     = 1
 +igbmod     = 1                   diomod     = 1                   rdsmod     = 1
 +rbodymod   = 0
 +rgatemod   = 0
 +permod     = 1
 +acnqsmod   = 0                   trnqsmod   = 0                   tempmod    = 0
 +wpemod     = 1                   tnom       = 25                  toxe       = 'toxprf+toxmisp'
 +toxm       = 2.8e-009            dtox       = 4.216e-010          epsrox     = 3.9
 +wint       = 0                   lint       = -6.55e-09           ll         = 1.71e-05
 +wl         = 0                   lln        = -0.474              wln        = 1
 +lw         = 0                   ww         = 0                   lwn        = 1
 +wwn        = 1                   lwl        = 0                   wwl        = 0
 +llc        = 1.71e-05            wlc        = 0                   lwc        = 0
 +wwc        = 0                   lwlc       = 0                   wwlc       = 0
 +xl         = '2e-09+(dxlprf+dxlmisp)'        xw         = '2.0e-08+(dxwprf+dxwmisp)'      dlc        = '-6.55e-09+ddlcprf'
 +dwc        = 0                   xpart      = 0			toxref     = 3e-009
 +dlcig      = 2.5e-009           
 +vth0       = '-0.43718619+dvthprf+dvthmisp' 
 +lvth0      = '3.2178643e-009+dlvthprf'
 +wvth0      = '1.3206912e-008+dwvthprf'
 +pvth0      = '-8.8880115e-016+dpvthprf'
 +k1         = 0.23752             k2         = '0.027489247+dk2prf'  lk2        = '7.5980421e-010+dlk2prf'
 +wk2        = '-8.0262273e-009+dwk2prf'
 +pk2        = '1.0831329e-016+dpk2prf'
 +k3         = -2.4570454          k3b        = 2.1204211           w0         = 0
 +dvt0       = 10.498235           dvt1       = 1.3326361           dvt2       = 0
 +dvt0w      = 0                   dvt1w      = 0                   dvt2w      = 0
 +dsub       = 0.4494              minv       = -0.335              voffl      = 0
 +dvtp0      = 1e-010              dvtp1      = 0.3712              lpe0       = 1.4959847e-007
 +lpeb       = 3.4167544e-008      web        = -210                wec        = -3510
 +scref      = 1e-006
 +kvth0we    = -0.0038
 +lkvth0we   = 5e-11
 +wkvth0we   = 3.3e-11
 +pkvth0we   = 0.65e-17
 +k2we       = 0.0005
 +lk2we      = 15e-11
 +wk2we      = 15e-11
 +pk2we      = -1.7e-17
 +xj         = 1.1e-007            ngate      = 1.13e+020           ndep       = 6.3687e+017
 +nsd        = 1e+020              phin       = 0                   cdsc       = 0
 +cdscb      = 0                   cdscd      = 0                   cit        = 0.00060171165
 +lcit       = '1.8246024e-010+dlcitprf'
 +wcit       = '-9.439202e-010+dwcitprf'
 +pcit       = '7.5195034e-017+dpcitprf'
 +voff       = -0.10151688         lvoff      = '-3.8985412e-009+dlvoffprf'
 +wvoff      = '-5.7821145e-009+dwvoffprf'
 +pvoff      = '1.283818e-015+dpvoffprf'
 +nfactor    = '0.7+dnfactorprf'     eta0       = '0.15306049+deta0prf' leta0      = '-4.6449316e-013+dleta0prf'
 +weta0      = '-4.8996634e-009+dweta0prf'
 +peta0      = '1.2028151e-018+dpeta0prf'
 +etab       = -0.1210028          wetab      = 4.9126056e-008      ud         = 0
 +lud        = 0                   wud        = 0                   pud        = 0
 +ku0we      = -0.0115
 +lku0we     = 6.5e-10
 +wku0we     = 6.2e-10
 +pku0we     = -6.5e-17
 +u0         = '((0.018311795+du0prf)*fu0_rf)*fu0misp'
 +lu0        = '((1.3663252e-012+dlu0prf)*fu0_rf)*fu0misp'
 +wu0        = '((8.2210644e-011+dwu0prf)*fu0_rf)*fu0misp'
 +pu0        = '((-1.3690578e-017+dpu0prf)*fu0_rf)*fu0misp'
 +ua         = 2.0244394e-009      lua        = -4.1775106e-017     wua        = -4.6908533e-016
 +pua        = -9.3878252e-024     ub         = 8.4480992e-019      lub        = 7.8289346e-026
 +wub        = 3.0300036e-025      pub        = -1.2173259e-032     uc         = 1.2061679e-010
 +luc        = 1.1440172e-017      wuc        = -6.8065064e-017     puc        = -1.9421063e-024
 +vsat       = '(102320.04+dvsatprf)'
 +lvsat      = '(0.0017671522+dlvsatprf)'
 +wvsat      = '(0.0019549554+dwvsatprf)'
 +pvsat      = '(-4.4983329e-010+dpvsatprf)'
 +a0         = 3.0733024           la0        = -2.0108138e-007     wa0        = -2.1841166e-006
 +pa0        = 2.7169336e-013      ags        = 2.4249007           lags       = 2.4785173e-007
 +wags       = -1.0777597e-006     pags       = 9.8004983e-014      a1         = 0
 +a2         = 1                   b0         = 0                   b1         = 0
 +keta       = -0.16539386         lketa      = 6.9455821e-009      wketa      = 5.9227609e-008
 +pketa      = -7.3831334e-015     dwg        = 0                   dwb        = 0
 +pclm       = 2.0945587           lpclm      = '-2.1757868e-008+dlpclmprf'
 +wpclm      = 5.5248741e-007      ppclm      = '-1.271268e-013+dppclmprf'
 +pdiblc1    = 0                   pdiblc2    = '0.009380001+dpdiblc2prf'
 +lpdiblc2   = -5.4763586e-010     wpdiblc2   = -1.3723411e-010     ppdiblc2   = 3.1577433e-017
 +pdiblcb    = 0                   drout      = 0.56                pvag       = 2.1
 +delta      = 0.036               pscbe1     = 9.264e+008          pscbe2     = 1e-020
 +fprout     = 200                 pdits      = 0                   pditsd     = 0
 +pditsl     = 0                   rsh        = 14.55                  rsw        = '75+drdswprf'
 +rdw        = '75+drdswprf'         prwg       = 0                   prwb       = 0
 +wr         = 1                   alpha0     = 1.945e-007          alpha1     = 0.23
 +beta0      = 17.8                agidl      = 1e-008              bgidl      = 2.317e+009
 +cgidl      = 4.6                 egidl      = 0.008744            aigbacc    = 0.012459
 +bigbacc    = 0.0046798592        cigbacc    = 0.245               nigbacc    = 8.2582031
 +aigbinv    = 0.35                bigbinv    = 0.03                cigbinv    = 0.006
 +eigbinv    = 1.1                 nigbinv    = 1                   aigc       = 0.006941
 +bigc       = 0.0013212138        cigc       = 0.1525875           aigsd      = 0.00629
 +bigsd      = 0.00033134367       cigsd      = 0.01328125          nigc       = 2
 +poxedge    = 1                   pigcd      = 2.84                ntox       = 'ntoxprf'
 +xrcrg1     = 12                  xrcrg2     = 1                   cgso       = 'cgoprf'
 +cgdo       = 'cgoprf'              cgbo       = 0                   cgdl       = 'cglprf'
 +cgsl       = 'cglprf'              clc        = 0			cle        = 0.6
 +cf         = 'cfprf'               ckappas    = 0.6                 ckappad    = 0.6
 +acde       = 1.03                moin       = 6.8381              noff       = 2.3364
 +voffcv     = -0.069707           tvoff      = 0.0025263677        ltvoff     = -6.8924791e-012
 +wtvoff     = -4.1708561e-010     ptvoff     = 6.0434125e-017      kt1        = -0.18961099
 +lkt1       = -2.5205829e-009     wkt1       = -2.8373858e-008     pkt1       = 5.065514e-015
 +kt1l       = 0                   kt2        = -0.040612586        lkt2       = -2.570608e-009
 +wkt2       = -2.7569322e-008     pkt2       = 1.23525e-015        ute        = -1.4930439
 +lute       = -1.5039911e-008     wute       = -3.2818557e-007     pute       = 9.7203107e-014
 +ua1        = -1.7087609e-010     lua1       = 6.0376647e-018      wua1       = 1.2572233e-015
 +pua1       = 1.9059241e-022      ub1        = -2.54724e-018       lub1       = 3.5260375e-026
 +wub1       = -1.2522225e-024     pub1       = -2.542536e-032      uc1        = 8.7162035e-012
 +luc1       = 5.2366996e-018      wuc1       = 1.1197311e-016      puc1       = 2.2941498e-023
 +prt        = 0
 +at         = '239835.91+datprf'
 +lat        = '-0.036846346+dlatprf'
 +wat        = '-0.32267684+dwatprf'
[...]
 +ef         = 1.10
 +jss        = 1.82e-07            jsd        = 1.82e-07
 +jsws       = 2.71e-13            jswd       = 2.71e-13            jswgs      = 2.71e-13
 +jswgd      = 2.71e-13            njs        = 1                   njd        = 1
 +ijthsfwd   = 0.01                ijthdfwd   = 0.01                ijthsrev   = 0.01
 +ijthdrev   = 0.01               
 +bvs        = 9.4                 
 +bvd        = 9.4 
 +xjbvs      = 1                   xjbvd      = 1                   pbs        = 1
 +pbd        = 1                   cjs        = 0			cjd        = 0
 +mjs        = 0.4                 mjd        = 0.4                 pbsws      = 1
 +pbswd      = 1                   cjsws      = 0			cjswd      = 0
 +mjsws      = 0.062               mjswd      = 0.062               pbswgs     = 0.75
 +pbswgd     = 0.75                cjswgs     = 0			cjswgd     = 0
 +mjswgs     = 0.95                mjswgd     = 0.95                tpb        = 0.003
 +tcj        = 0.00105             tpbsw      = 0.002               tcjsw      = 0.0002
 +tpbswg     = 0.0005              tcjswg     = 0.00132             xtis       = 3
 +xtid       = 3                   jtsswgs    = 1.033e-007          jtsswgd    = 1.033e-007
 +njtsswg    = 5.7                 vtsswgs    = 0.1                 vtsswgd    = 0.1
 +dmcg       = 6.1e-008            dmci       = 6.6e-008            dmdg       = 0
 +dmcgt      = 0                   dwj        = 0                   xgw        = 0
 +xgl        = -2.30e-008
 +rshg       = 14.93
 +gbmin      = 1e-012
 +rbpb       = 50                  rbpd       = 50                  rbps       = 50
 +rbdb       = 50                  rbsb       = 50                  ngcon      = 1
 +saref      = 4.05e-007
 +sbref      = 4.05e-007
 +wlod       = 2.8e-7
 +kvth0      = 2e-010
 +lkvth0     = 2e-09
 +wkvth0     = 2e-008
 +pkvth0     = 0e-013
 +llodvth    = 2
 +wlodvth    = 1
 +stk2       = 2e-012
 +lodk2      = 1
 +lodeta0    = 1
 +ku0        = -1.2e-009
 +pku0     = 0e-14
 +lku0       = -4.5e-008
 +wku0       = 0e-008
 +llodku0    = 1
 +wlodku0    = 1
 +kvsat      = 0.2
 +steta0     = -1e-010
 +tku0       = 0
 +wu0        = '((0+dwu0prf)*fu0_rf)*fu0misp'
 +pu0        = '((0+dpu0prf)*fu0_rf)*fu0misp'  
 +lnfactor   = '0+dlnfactorprf'      wnfactor   = '0+dwnfactorprf'
 +pnfactor   = '0+dpnfactorprf'
 +fnoimod  = 1
 +tnoimod = 1
 +rnoib = 0
 +rnoia = 'rnoiax'
 +tnoia = 'tnoiax'    )





 .model pch_rf.4 pmos	(	level      = 54                  
 +lmin       = 6.0e-008
 +lmax       = '9.999946e-008-(dxlprf+dxlmisp)'
 +wmin       = 0.6e-006			
 +wmax       = '1e-006-(dxwprf+dxwmisp)'       
 +version    = 4.5
 +rgeomod    = 1                   binunit    = 2                   paramchk   = 1
 +mobmod     = 0                   capmod     = 2                   igcmod     = 1
 +igbmod     = 1                   diomod     = 1                   rdsmod     = 1
 +rbodymod   = 0
 +rgatemod   = 0
 +permod     = 1
 +acnqsmod   = 0                   trnqsmod   = 0                   tempmod    = 0
 +wpemod     = 1                   tnom       = 25                  toxe       = 'toxprf+toxmisp'
 +toxm       = 2.8e-009            dtox       = 4.216e-010          epsrox     = 3.9
 +wint       = 0                   lint       = -6.55e-09           ll         = 1.71e-05
 +wl         = 0                   lln        = -0.474              wln        = 1
 +lw         = 0                   ww         = 0                   lwn        = 1
 +wwn        = 1                   lwl        = 0                   wwl        = 0
 +llc        = 1.71e-05            wlc        = 0                   lwc        = 0
 +wwc        = 0                   lwlc       = 0                   wwlc       = 0
 +xl         = '2e-09+(dxlprf+dxlmisp)'        xw         = '2.0e-08+(dxwprf+dxwmisp)'      dlc        = '-6.55e-09+ddlcprf'
 +dwc        = 0                   xpart      = 0			toxref     = 3e-009
 +dlcig      = 2.5e-009           
 +vth0       = '-0.4183589+dvthprf+dvthmisp' 
 +lvth0      = '1.2618987e-009+dlvthprf'
 +wvth0      = '3.5960684e-008+dwvthprf'
 +pvth0      = '-3.0265415e-015+dpvthprf'
 +k1         = 0.23752             k2         = '0.022738541+dk2prf'  lk2        = '7.0199448e-010+dlk2prf'
 +wk2        = '-6.399827e-009+dwk2prf'
 +pk2        = '4.8438224e-016+dpk2prf'
 +k3         = -2.4570454          k3b        = 2.1204211           w0         = 0
 +dvt0       = 10.498235           dvt1       = 1.3326361           dvt2       = 0
 +dvt0w      = 0                   dvt1w      = 0                   dvt2w      = 0
 +dsub       = 0.4494              minv       = -0.335              voffl      = 0
 +dvtp0      = 1e-010              dvtp1      = 0.3712              lpe0       = 1.4959847e-007
 +lpeb       = 3.4167544e-008      web        = -210                wec        = -3510
 +scref      = 1e-006
 +kvth0we    = -0.0038
 +lkvth0we   = 5e-11
 +wkvth0we   = 3.3e-11
 +pkvth0we   = 0.65e-17
 +k2we       = 0.0005
 +lk2we      = 15e-11
 +wk2we      = 15e-11
 +pk2we      = -1.7e-17
 +xj         = 1.1e-007            ngate      = 1.13e+020           ndep       = 6.3687e+017
 +nsd        = 1e+020              phin       = 0                   cdsc       = 0
 +cdscb      = 0                   cdscd      = 0                   cit        = -0.003713364
 +lcit       = '6.2948623e-010+dlcitprf'
 +wcit       = '3.1067772e-010+dwcitprf'
 +pcit       = '-7.0813731e-017+dpcitprf'
 +voff       = -0.10614675         lvoff      = '-3.0117636e-009+dlvoffprf'
 +wvoff      = '2.1045293e-008+dwvoffprf'
 +pvoff      = '-1.798032e-015+dpvoffprf'
 +nfactor    = '0.7+dnfactorprf+0.394754*ff_flagrf+0.394754*ss_flagrf+0.315803*sf_flagrf-0.315803*fs_flagrf'
 +eta0       = '0.11688678+deta0prf' leta0      = '2.82565e-009+dleta0prf'
 +weta0      = '2.0530196e-008+dweta0prf'
 +peta0      = '-1.751903e-015+dpeta0prf'
 +etab       = -0.0592775          wetab      = -1.383375e-008      ud         = 0
 +lud        = 0                   wud        = 0                   pud        = 0
 +ku0we      = -0.0115
 +lku0we     = 6.5e-10
 +wku0we     = 6.2e-10
 +pku0we     = -6.5e-17
 +u0         = '((0.018134172+du0prf+0.000432956*ff_flagrf-0.00129887*ss_flagrf+0.0*sf_flagrf-0.000346365*fs_flagrf)*fu0_rf)*fu0misp'
 +lu0        = '((1.337909e-011+dlu0prf-4.2646e-11*ff_flagrf+1.27938e-10*ss_flagrf+0.0*sf_flagrf+3.41168e-11*fs_flagrf)*fu0_rf)*fu0misp'
 +ua         = 1.3899922e-009      lua        = -1.4990434e-017     wua        = 4.0746901e-016
 +pua        = -5.9305876e-023     ub         = 3.3204841e-018      lub        = -1.0111129e-025
 +wub        = -2.234459e-024      pub        = 1.7202414e-031      uc         = 2.8928966e-010
 +luc        = -4.6402028e-018     wuc        = -2.6864957e-016     puc        = 1.7270887e-023
 +vsat       = '(132266.67+dvsatprf+2631.69*ff_flagrf-21647.8*ss_flagrf+2105.35*sf_flagrf-2105.35*fs_flagrf)'
 +lvsat      = '(-0.00025921987+dlvsatprf-0.000259221*ff_flagrf+0.0021323*ss_flagrf-0.000207377*sf_flagrf+0.000207377*fs_flagrf)'
 +wvsat      = '(-0.014858007+dwvsatprf-0.00268433*ff_flagrf+0.0134216*ss_flagrf-0.00214746*sf_flagrf+0.00214746*fs_flagrf)'
 +pvsat      = '(2.6440426e-010+dpvsatprf+2.64405e-10*ff_flagrf-1.32203e-09*ss_flagrf+2.11524e-10*sf_flagrf-2.11524e-10*fs_flagrf)'
 +a0         = -7.6203489          la0        = 9.6522011e-007      wa0        = 2.4587037e-006
 +pa0        = -3.0086082e-013     ags        = 10.540098           lags       = 1.8235206e-007
 +wags       = -6.5380324e-006     pags       = -1.1268236e-013     a1         = 0
 +a2         = 1                   b0         = 0                   b1         = 0
 +keta       = -0.3183352          lketa      = 1.8070041e-008      wketa      = 4.1231505e-008
 +pketa      = -1.5914493e-015     dwg        = 0                   dwb        = 0
 +pclm       = '1.3863246+0.0865912*ff_flagrf-0.432956*ss_flagrf+0.0*sf_flagrf-0.0692729*fs_flagrf'
 +lpclm      = '-7.7061899e-009+dlpclmprf-8.52921e-09*ff_flagrf+4.2646e-08*ss_flagrf+0.0*sf_flagrf+6.82337e-09*fs_flagrf'
 +wpclm      = '-2.4238831e-007-5.36865e-08*ff_flagrf+2.68433e-07*ss_flagrf+0.0*sf_flagrf+4.29492e-08*fs_flagrf'
 +ppclm      = '7.9920313e-015+dppclmprf+5.28811e-15*ff_flagrf-2.64405e-14*ss_flagrf+0.0*sf_flagrf-4.23049e-15*fs_flagrf'
 +pdiblc1    = 0                   pdiblc2    = '0.00431+dpdiblc2prf'  wpdiblc2   = -3.162e-010
 +pdiblcb    = 0                   drout      = 0.56                pvag       = 2.1
 +delta      = 0.036               pscbe1     = 9.264e+008          pscbe2     = 1e-020
 +fprout     = 200                 pdits      = 0                   pditsd     = 0
 +pditsl     = 0                   rsh        = 14.55                  rsw        = '75+drdswprf'
 +rdw        = '75+drdswprf'         prwg       = 0                   prwb       = 0
 +wr         = 1                   alpha0     = 1.945e-007          alpha1     = 0.23
 +beta0      = 17.8                agidl      = 1e-008              bgidl      = 2.317e+009
 +cgidl      = 4.6                 egidl      = 0.008744            aigbacc    = 0.012459
 +bigbacc    = 0.0046798592        cigbacc    = 0.245               nigbacc    = 8.2582031
 +aigbinv    = 0.35                bigbinv    = 0.03                cigbinv    = 0.006
 +eigbinv    = 1.1                 nigbinv    = 1                   aigc       = 0.006941
 +bigc       = 0.0013212138        cigc       = 0.1525875           aigsd      = 0.00629
 +bigsd      = 0.00033134367       cigsd      = 0.01328125          nigc       = 2
 +poxedge    = 1                   pigcd      = 2.84                ntox       = 'ntoxprf'
 +xrcrg1     = 12                  xrcrg2     = 1                   cgso       = 'cgoprf'
 +cgdo       = 'cgoprf'              cgbo       = 0                   cgdl       = 'cglprf'
 +cgsl       = 'cglprf'              clc        = 0			cle        = 0.6
 +cf         = 'cfprf'               ckappas    = 0.6                 ckappad    = 0.6
 +acde       = 1.03                moin       = 6.8381              noff       = 2.3364
 +voffcv     = -0.069707           tvoff      = 0.006443761         ltvoff     = -2.5164396e-010
 +wtvoff     = -2.9129647e-009     ptvoff     = 1.6234422e-016      kt1        = -0.0509619
 +lkt1       = -1.3279583e-008     wkt1       = -8.5069741e-008     pkt1       = 7.6941641e-015
 +kt1l       = 0                   kt2        = -0.10243042         lkt2       = 1.6665026e-009
 +wkt2       = -1.4147519e-009     pkt2       = 5.4800956e-016      ute        = 1.5479247
 +lute       = -1.6913678e-007     wute       = -2.3962613e-006     pute       = 1.5256126e-013
 +ua1        = 1.2881832e-008      lua1       = -5.1165093e-016     wua1       = -1.0266886e-014
 +pua1       = 5.4235396e-022      ub1        = -8.6610064e-018     lub1       = 1.3588138e-025
 +wub1       = 5.6969604e-024      pub1       = -1.983032e-031      uc1        = 1.279103e-009
 +luc1       = -6.4453765e-017     wuc1       = -6.2652247e-016     puc1       = 3.9131831e-023
 +prt        = 0
 +at         = '-11426.722+datprf'
 +lat        = '-0.0064077479+dlatprf'
 +wat        = '-0.095092602+dwatprf'
 +pat        = '7.7470449e-09+dpatprf'
 +noia = 'noiaprf'
 +noib = 'noibprf'
 +noic = 'noicprf'
 +em         = 5e+07
 +ef         = 1.10
 +jss        = 1.82e-07            jsd        = 1.82e-07
 +jsws       = 2.71e-13            jswd       = 2.71e-13            jswgs      = 2.71e-13
 +jswgd      = 2.71e-13            njs        = 1                   njd        = 1
 +ijthsfwd   = 0.01                ijthdfwd   = 0.01                ijthsrev   = 0.01
 +ijthdrev   = 0.01               
 +bvs        = 9.4                 
 +bvd        = 9.4 
 +xjbvs      = 1                   xjbvd      = 1                   pbs        = 1
 +pbd        = 1                   cjs        = 0			cjd        = 0
 +mjs        = 0.4                 mjd        = 0.4                 pbsws      = 1
 +pbswd      = 1                   cjsws      = 0			cjswd      = 0
 +mjsws      = 0.062               mjswd      = 0.062               pbswgs     = 0.75
 +pbswgd     = 0.75                cjswgs     = 0			cjswgd     = 0
 +mjswgs     = 0.95                mjswgd     = 0.95                tpb        = 0.003
 +tcj        = 0.00105             tpbsw      = 0.002               tcjsw      = 0.0002
 +tpbswg     = 0.0005              tcjswg     = 0.00132             xtis       = 3
 +xtid       = 3                   jtsswgs    = 1.033e-007          jtsswgd    = 1.033e-007
 +njtsswg    = 5.7                 vtsswgs    = 0.1                 vtsswgd    = 0.1
 +dmcg       = 6.1e-008            dmci       = 6.6e-008            dmdg       = 0
 +dmcgt      = 0                   dwj        = 0                   xgw        = 0
 +xgl        = -2.30e-008
 +rshg       = 14.93
 +gbmin      = 1e-012
 +rbpb       = 50                  rbpd       = 50                  rbps       = 50
 +rbdb       = 50                  rbsb       = 50                  ngcon      = 1
 +saref      = 4.05e-007
 +sbref      = 4.05e-007
 +wlod       = 2.8e-7
 +kvth0      = 2e-010
 +lkvth0     = 2e-09
 +wkvth0     = 2e-008
 +pkvth0     = 0e-013
 +llodvth    = 2
 +wlodvth    = 1
 +stk2       = 2e-012
 +lodk2      = 1
 +lodeta0    = 1
 +ku0        = -1.2e-009
 +pku0     = 0e-14
 +lku0       = -4.5e-008
 +wku0       = 0e-008
 +llodku0    = 1
 +wlodku0    = 1
 +kvsat      = 0.2
 +steta0     = -1e-010
 +tku0       = 0
 +wu0        = '((0+dwu0prf-2.68433e-10*ff_flagrf+8.05298e-10*ss_flagrf+0.0*sf_flagrf+2.14746e-10*fs_flagrf)*fu0_rf)*fu0misp'
 +pu0        = '((0+dpu0prf+2.64405e-17*ff_flagrf-7.93216e-17*ss_flagrf+0.0*sf_flagrf-2.11524e-17*fs_flagrf)*fu0_rf)*fu0misp'
 +lnfactor   = '0+dlnfactorprf-3.88831e-08*ff_flagrf-3.88831e-08*ss_flagrf-3.11065e-08*sf_flagrf+3.11065e-08*fs_flagrf'
 +wnfactor   = '0+dwnfactorprf-4.02649e-07*ff_flagrf-4.02649e-07*ss_flagrf-3.22119e-07*sf_flagrf+3.22119e-07*fs_flagrf'
 +pnfactor   = '0+dpnfactorprf+3.96608e-14*ff_flagrf+3.96608e-14*ss_flagrf+3.17286e-14*sf_flagrf-3.17286e-14*fs_flagrf'
 +fnoimod  = 1
 +tnoimod = 1
 +rnoib = 0
 +rnoia = 'rnoiax'
 +tnoia = 'tnoiax'    )





 .model pdio_rf_f d (						   level  = 3
 +is     = 1.82e-07                ikr    = 1e10
 +n      = 1                       bv     = 9.4                     ibv    = 0.03
 +jsw    = 2.71e-13                cj     = 'cjprf'                 pj     = 7.2e-4
 +mj     = 0.4                     fc     = 0                       cjsw   = 'cjswprf'
 +area   = 3.08e-8                 mjsw   = 0.062                   tlevc  = 1
 +cta    = 0.00105                 ctp    = 0.0002                  
 +tcv    = -8.5e-04                tlev   = 1                       xti    = 3
 +eg     = 1.17                    php    = 1                       pb     = 1
 +ik     = 1e20                    tpb    = 0.003                   tref   = 25
 +tphp   = 0.002                   fcs    = 0			   )

 .model pdio_rf_g d (						   level  = 3
 +is     = 1.82e-07                ikr    = 1e10
 +n      = 1                       bv     = 9.4                     ibv    = 0.03
 +jsw    = 2.71e-13                cj     = 'cjprf'                 pj     = 7.2e-4
 +mj     = 0.4                     fc     = 0                       cjsw   = 'cjswgprf'
 +area   = 3.08e-8                 mjsw   = 0.95                    tlevc  = 1
 +cta    = 0.00105                 ctp    = 0.00132                 
 +tcv    = -8.5e-04                tlev   = 1                       xti    = 3
 +eg     = 1.17                    php    = 0.75                    pb     = 1
 +ik     = 1e20                    tpb    = 0.003                   tref   = 25
 +tphp   = 0.0005                  fcs    = 0			   )

 .model nw_dio_prf d (                                         level  = 3
 + is     = '3.41e-06*is_d_prf'   ikr    = 1e10               rs     = '1.0e-10*rs_d_prf'
 + n      = '1.02*n_d_prf'        bv     = 12                 ibv    = 0.03
 + jsw    = '1.05e-12*pwr(2,x_jsw_d_prf)'  cj     = '1.37e-04*cj_d_prf'    pj     = 7.24e-4
 + mj     = 0.33              fc     = 0                  cjsw   = '7.25e-10*cjsw_d_prf'
 + area   = 3.1161e-8         mjsw   = 0.35               tlevc  = 1
 + cta    = 2.3e-03           ctp    = 1.16e-03           trs    = 2.5e-3
 + tcv    = -9.5e-04          tlev   = 1                  xti    = 3
 + eg     = 1.17              php    = 0.65               pb     = 0.5
 + ik     = 1e20              tpb    = 2.6e-03            tref   = 25
 + tphp   = 1.90e-03          fcs    = 0                  )

 .ends pmos_rf_nw_5t

 .endl rf_mos
 .endl tt_rfmos

 vdd vdd gnd 0.5v

 *startupckt

 m15 vdd wire3 wire3 wire3 pch w=60u l=3u
 m16 wire3 wire4 wire4 wire4 pch w=60u l=3u
 m17 wire4 vref wire2 wire2 pch w=60u l=3u
 m18 wire2 vref gnd gnd nch w=60u l=3u
 m19 wire1 wire2 gnd gnd nch w=60u l=3u
 m25 wire11 vref gnd gnd nch w=60u l=3u

 *diffamp

 m10 vdd wire5 wire5 wire5 pch w=60u l=3u
 m11 vdd wire5 wire1 wire1 pch w=60u l=3u
 m12 wire5 wire6 wire7 wire7 nch w=20u l=3u
 m13 wire1 wire9 wire7 wire7 nch w=20u l=3u
 m14 wire7 wire8 gnd gnd nch w=60u l=3u

 *currentmirrtop
 m20 vdd wire1 wire9 wire9 pch w=60u l=3u
 m21 vdd wire1 wire6 wire6 pch w=60u l=3u
 m22 vdd wire1 wire12 wire12 pch w=60u l=3u
 m23 vdd wire1 wire14 wire14 pch w=60u l=3u
 m24 vdd wire1 vref vref pch w=60u l=3u

 *cascadecurrmirr

 m8 wire9 wire9 wire8 wire8 nch w=60u l=3u
 m9 wire6 wire9 wire10 wire10 nch w=60u l=3u
 m1 wire8 wire8 gnd gnd nch w=60u l=3u
 m2 wire10 wire8 wire11 wire11 nch w=60u l=3u

 *biasvoltagesubckt

 m3 wire12 wire12 wire13 wire13 nch w=60u l=3u 
 m4 wire13 wire12 gnd gnd nch w=6u l=3u
 m5 wire14 wire14 wire15 wire15 nch w=60u l=3u
 m6 wire15 wire14 wire13 wire13 nch w=6u l=3u
 m7 vref vref wire15 wire15 nch w=6u l=3u

 *passivecomp

 c1 vdd wire1 1p
 c2 wire9 gnd 1p
 c3 wire1 wire6 1p

 .option post probe
 .op
 .dc temp -20 80 0.1
 .dc vdd 0v 1.4v 0.1

 .probe v(vref)

 .end

 **error** model name pch in the element     0:m15
 is not defined.


          ***** job aborted
1****** HSPICE -- B-2008.09 32-BIT (Aug 26 2008) winnt ******                   
 ******  
 *ueno2009

  ******  job statistics summary tnom=  25.000 temp=  25.000 *****

  ******  HSPICE Threads Information  ******
  Command Line Threads Count:                      0
  Available CPU Count:                             4
  Actual Model Evaluation(Load) Threads Count:     1
  Actual Solver Threads Count:                     1


  ******  Circuit Statistics  ******
  # nodes       =       0  # elements   =      29
  # resistors   =       0  # capacitors =       3  # inductors   =       0
  # mutual_inds =       0  # vccs       =       0  # vcvs        =       0
  # cccs        =       0  # ccvs       =       0  # volt_srcs   =       1
  # curr_srcs   =       0  # diodes     =       0  # bjts        =       0
  # jfets       =       0  # mosfets    =      25  # U elements  =       0
  # T elements  =       0  # W elements =       0  # B elements  =       0
  # S elements  =       0  # P elements =       0  # va device   =       0


  ******  Runtime Statistics (seconds)  ******

  analysis           time    # points   tot. iter  conv.iter
  op point           0.00           1           0
  readin             0.44
  errchk             0.00
  setup              0.00
  output             0.00


           total memory used          464  kbytes
           total cpu time            0.46 seconds
           total elapsed time           1 seconds
           job started at     16:23:13 11/26/2018
           job ended   at     16:23:14 11/26/2018


 Init: hspice initialization file: C:\synopsys\Hspice_B-2008.09\hspice.ini
