$DATA1 SOURCE='HSPICE' VERSION='B-2008.09 32-BIT'
.TITLE '*constant gm current reference by jeph daligdig'
 gb               temper           alter#            
  7.412e+06         25.0000           1.0000         
