$DATA1 SOURCE='HSPICE' VERSION='B-2008.09 32-BIT'
.TITLE 'twostageamplifier_step3.2'
 gb               temper           alter#            
  2.766e+07         25.0000           1.0000         
