$DATA1 SOURCE='HSPICE' VERSION='B-2008.09 32-BIT'
.TITLE 'twostageamplifier_step3.2'
 gb               temper           alter#            
  2.917e+06         25.0000           3.0000         
