 ****** HSPICE -- B-2008.09 32-BIT (Aug 26 2008) winnt ******                   
  Copyright (C) 2008 Synopsys, Inc. All Rights Reserved.                        
  Unpublished-rights reserved under US copyright laws.
  This program is protected by law and is subject to the 
  terms and conditions of the license agreement from Synopsys.
  Use of this program is your acceptance to be bound by the 
  license agreement. HSPICE is the trademark of Synopsys, Inc.
  Input File: e:\jephmari files\my academic files\h. 4th year 1st sem\ece170\sim
 Init: read install configuration file: C:\synopsys\Hspice_B-2008.09\meta.cfg
 Init: hspice initialization file: C:\synopsys\Hspice_B-2008.09\hspice.ini





 .lib 'all_mos.l' tt

 .param toxn  = 7.5e-9 toxp  = 7.7e-9 
 +dxl  = 0 dxw  = 0
 +dvtn  = 0 dvtp  = 0  
 +cjn  = 9.50957e-4 cjp  =  1.38871e-3
 +cjswn  = 2.84489e-10 cjswp  = 3.86159e-10
 +cgon  = 2.063e-10 cgop  = 1.83e-10
 +cjswgn  = 1.816514e-10 cjswgp  = 4.415421e-11 
 +hdifn  = 3.65e-07 hdifp  = 3.65e-07  
 .lib 'all_mos.l' mos

 *
 ***************************************************************
 *                                                             *
 *               3.3v nmos devices model                       *
 *                                                             *
 ***************************************************************
 .model nch.1             nmos   (                    lmin    = '1.207e-06-dxl' 
 +lmax    = 2.01e-05        wmin    = '1.183e-06-dxw' wmax    = '1.9983e-5-dxw' 
 +level   = 49              tnom    = 25              version = 3.1             
 +acm     = 12              ldif    = 1.2e-07         hdif    = hdifn           
 +rsh     = 82.2            rd      = 0               rs      = 0               
 +tox     = toxn            xj      = 1e-07           nch     = 2.3579e+17      
 +lln     = 1               lwn     = 1               wln     = 1               
 +wwn     = 1               lint    = 4e-08           ll      = 0               
 +lw      = 0               lwl     = 0               wint    = 4e-08           
 +wl      = 0               ww      = 0               wwl     = 0               
 +mobmod  = 1               binunit = 2               xl      = '3e-08+dxl'     
 +xw      = '1.5e-07+dxw'   dwg     = 0               dwb     = 0               
 +vth0    = 'dvtn+0.536027' lvth0   = 3.726466e-08    wvth0   = -2.1316e-08     
 +pvth0   = -2.460013e-14   k1      = 0.5246611       lk1     = -1.639613e-08   
 +wk1     = -5.031044e-08   pk1     = 2.211867e-14    k2      = 0.02709882      
 +lk2     = -6.586022e-09   wk2     = 5.785586e-09    pk2     = 3.435911e-15    
 +k3      = 0               dvt0    = 0               dvt1    = 0               
 +dvt2    = 0               dvt0w   = 0               dvt1w   = 0               
 +dvt2w   = 0               nlx     = 0               w0      = 0               
 +k3b     = 0               vsat    = 95850.88        lvsat   = 0.01310061      
 +wvsat   = 0.0008223997    pvsat   = -1.641506e-08   ua      = 3.196265e-11    
 +lua     = -3.698079e-17   wua     = -6.408507e-16   pua     = 7.414642e-22    
 +ub      = 2.045354e-18    lub     = 6.227287e-25    wub     = 5.533028e-26    
 +pub     = -1.805726e-30   uc      = 6.725734e-11    luc     = 1.901776e-17    
 +wuc     = -3.996494e-17   puc     = -3.876839e-23   rdsw    = 750             
 +prwb    = 0               prwg    = 0               wr      = 1               
 +u0      = 0.04660162      lu0     = 5.515446e-09    wu0     = -1.626703e-08   
 +pu0     = -4.134264e-15   a0      = 0.5017616       la0     = 5.552729e-07    
 +wa0     = 6.615518e-07    pa0     = -5.219843e-13   keta    = -0.008348037    
 +lketa   = 2.403177e-08    wketa   = 2.44925e-08     pketa   = -3.102829e-14   
 +a1      = 0               a2      = 0.99            ags     = 0.09736285      
 +lags    = 1.223815e-07    wags    = 1.607973e-07    pags    = -4.561918e-14   
 +b0      = 0               b1      = 0               voff    = -0.1432202      
 +lvoff   = 3.766451e-08    wvoff   = 2.755289e-08    pvoff   = -1.641511e-14   
 +nfactor = 1.071551        lnfactor= -3.18949e-07    wnfactor= -3.166332e-07   
 +pnfactor= 4.241266e-13    cit     = -7.628655e-05   lcit    = 2.723331e-10    
 +wcit    = 4.660042e-10    pcit    = -4.03804e-16    cdsc    = 0               
 +cdscb   = 0               cdscd   = 0               eta0    = 0.0002181413    
 +leta0   = 4.893156e-10    weta0   = -2.201543e-10   peta0   = 3.379313e-16    
 +etab    = 1.65427e-05     letab   = -1.913991e-11   wetab   = -2.072801e-11   
 +petab   = 2.39823e-17     dsub    = 0               pclm    = 0.1632291       
 +lpclm   = 7.33948e-07     wpclm   = 7.523777e-09    ppclm   = -1.501737e-13   
 +pdiblc1 = 1e-05           pdiblc2 = -0.0001189527   lpdiblc2= 3.04769e-09     
 +wpdiblc2= 7.281391e-12    ppdiblc2= -5.988417e-16   pdiblcb = 0.138753        
 +drout   = 0               pscbe1  = 4.710076e+08    lpscbe1 = -47.68667       
 +wpscbe1 = -72.788         ppscbe1 = -1.725277e-05   pscbe2  = 0.0001510638    
 +lpscbe2 = -1.69574e-10    wpscbe2 = -1.390941e-10   ppscbe2 = 1.578688e-16    
 +pvag    = 0               delta   = 0.01            alpha0  = 2.5e-06        
 +beta0   = 20.7            kt1     = -0.2700492      lkt1    = -3.095004e-08   
 +wkt1    = 2.812907e-08    pkt1    = 7.879249e-14    kt2     = -0.04153765     
 +lkt2    = 2.524311e-08    wkt2    = 2.833375e-08    pkt2    = -1.608147e-14   
 +at      = 2219.528        lat     = -0.02686487     wat     = -0.002395568    
 +pat     = 2.596705e-08    ute     = -2.065168       lute    = -4.132515e-07   
 +wute    = 4.668071e-07    pute    = 3.33133e-13     ua1     = 1.422613e-10    
 +lua1    = -1.44336e-15    wua1    = 9.693937e-16    pua1    = 1.598886e-22    
 +ub1     = -2.172033e-18   lub1    = 1.404262e-24    wub1    = 5.546184e-26    
 +pub1    = 6.856764e-31    uc1     = -5.716306e-11   luc1    = 5.31648e-17     
 +wuc1    = -2.396283e-17   puc1    = -2.142338e-24   kt1l    = 0               
 +prt     = 24.11496        lprt    = -1.086812e-05   wprt    = -0.000500091    
 +pprt    = 1.361775e-11    
 +cj      = cjn            cjsw     = cjswn          cjswg    = cjswgn 
 +mj      = 0.3297355      mjsw     = 0.1303453      mjswg    = 0.1303453
 +pb      = 0.6944804      pbsw     = 0.6944804      pbswg    = 0.6944804
 +cta     = 9.42521e-4     ctp      = 4.91382e-04    pta      = 1.485657e-03
 +ptp     = 1.485657e-03   cgdo     = cgon           cgso     = cgon
 +xti     = 3              n        = 1              capmod   = 0
 +nqsmod  = 0              xpart    = 1              cf       = 0 
 +calcacm = 1              sfvtflag = 0              vfbflag  = 1       
 +js      = 6.27496e-05    jsw      = 5.79847e-10          )
 *
 *
 .model nch.2             nmos   (                    lmin    = '8.07e-07-dxl'  
 +lmax    = '1.207e-06-dxl' wmin    = '1.183e-06-dxw' wmax    = '1.9983e-5-dxw' 
 +level   = 49              tnom    = 25              version = 3.1             
 +acm     = 12              ldif    = 1.2e-07         hdif    = hdifn           
 +rsh     = 82.2            rd      = 0               rs      = 0               
 +tox     = toxn            xj      = 1e-07           nch     = 2.3579e+17      
 +lln     = 1               lwn     = 1               wln     = 1               
 +wwn     = 1               lint    = 4e-08           ll      = 0               
 +lw      = 0               lwl     = 0               wint    = 4e-08           
 +wl      = 0               ww      = 0               wwl     = 0               
 +mobmod  = 1               binunit = 2               xl      = '3e-08+dxl'     
 +xw      = '1.5e-07+dxw'   dwg     = 0               dwb     = 0               
 +vth0    = 'dvtn+0.546655' lvth0   = 2.496758e-08    wvth0   = -4.998887e-08   
 +pvth0   = 8.574382e-15    k1      = 0.4989724       lk1     = 1.332564e-08    
 +wk1     = -1.063668e-07   pk1     = 8.697584e-14    k2      = 0.02537151      
 +lk2     = -4.587532e-09   wk2     = 1.546677e-08    pk2     = -7.765214e-15   
 +k3      = 0               dvt0    = 0               dvt1    = 0               
 +dvt2    = 0               dvt0w   = 0               dvt1w   = 0               
 +dvt2w   = 0               nlx     = 0               w0      = 0               
 +k3b     = 0               vsat    = 129157.8        lvsat   = -0.02543551     
 +wvsat   = -0.07469934     pvsat   = 7.096359e-08    ua      = 0               
 +ub      = 3.817944e-18    lub     = -1.428159e-24   wub     = -3.001886e-24   
 +pub     = 1.731473e-30    uc      = 1.288592e-10    luc     = -5.225554e-17   
 +wuc     = -1.385508e-16   puc     = 7.529545e-23    rdsw    = 750             
 +prwb    = 0               prwg    = 0               wr      = 1               
 +u0      = 0.05813805      lu0     = -7.83221e-09    wu0     = -2.807534e-08   
 +pu0     = 9.527953e-15    a0      = 1.417374        la0     = -5.040912e-07   
 +wa0     = 4.499891e-07    pa0     = -2.772062e-13   keta    = 0.02457614      
 +lketa   = -1.40615e-08    wketa   = -1.016334e-08   pketa   = 9.068513e-15    
 +a1      = 0               a2      = 0.99            ags     = 0.5850528       
 +lags    = -4.418758e-07   wags    = 4.016458e-07    pags    = -3.242809e-13   
 +b0      = 0               b1      = 0               voff    = -0.1838075      
 +lvoff   = 8.462402e-08    wvoff   = 1.050108e-07    pvoff   = -1.060339e-13   
 +nfactor = -0.0335216      lnfactor= 9.596193e-07    wnfactor= 1.057246e-06    
 +pnfactor= -1.165451e-12   cit     = 0.0004911736    lcit    = -3.842184e-10   
 +wcit    = -3.289006e-10   pcit    = 5.159007e-16    cdsc    = 0               
 +cdscb   = 0               cdscd   = 0               eta0    = 0.0001221602    
 +leta0   = 6.003658e-10    weta0   = 9.98899e-10     peta0   = -1.072513e-15   
 +etab    = -6.307671e-06   letab   = 7.29797e-12     wetab   = 1.264687e-10    
 +petab   = -1.463242e-16   dsub    = 0               pclm    = 0.7657633       
 +lpclm   = 3.681587e-08    wpclm   = -3.195318e-07   ppclm   = 2.282295e-13    
 +pdiblc1 = 1e-05           pdiblc2 = -0.001092725    lpdiblc2= 4.174345e-09    
 +wpdiblc2= -5.786619e-10   ppdiblc2= 7.909472e-17    pdiblcb = -0.1138522      
 +lpdiblcb= 2.922645e-07    wpdiblcb= 3.165146e-07    ppdiblcb= -3.662074e-13   
 +drout   = 0               pscbe1  = 4.682528e+08    lpscbe1 = -44.49948       
 +wpscbe1 = -209.8855       ppscbe1 = 0.0001413691    pscbe2  = 3.714287e-06    
 +lpscbe2 = 9.093489e-13    wpscbe2 = -8.065528e-13   ppscbe2 = -2.129907e-18   
 +pvag    = 0               delta   = 0.01            alpha0  = 2.5e-06      
 +beta0   = 20.7            kt1     = -0.2160808      lkt1    = -9.339147e-08   
 +wkt1    = 3.355112e-08    pkt1    = 7.251917e-14    kt2     = -0.01143072     
 +lkt2    = -9.590603e-09   wkt2    = 2.278139e-08    pkt2    = -9.657396e-15   
 +at      = -66481.34       lat     = 0.05262202      wat     = 0.09716874      
 +pat     = -8.922884e-08   ute     = -2.188333       lute    = -2.707498e-07   
 +wute    = 5.839889e-08    pute    = 8.056612e-13    ua1     = 4.797778e-10    
 +lua1    = -1.833867e-15   wua1    = -9.438131e-16   pua1    = 2.373469e-21    
 +ub1     = -3.79573e-18    lub1    = 3.282878e-24    wub1    = 4.301764e-24    
 +pub1    = -4.227295e-30   uc1     = -3.774725e-11   luc1    = 3.07007e-17     
 +wuc1    = 3.189914e-17    puc1    = -6.677463e-23   kt1l    = 0               
 +prt     = 46.58106        lprt    = -3.686147e-05   wprt    = -0.001359025    
 +pprt    = 1.007405e-09 
 +cj      = cjn            cjsw     = cjswn          cjswg    = cjswgn 
 +mj      = 0.3297355      mjsw     = 0.1303453      mjswg    = 0.1303453
 +pb      = 0.6944804      pbsw     = 0.6944804      pbswg    = 0.6944804
 +cta     = 9.42521e-4     ctp      = 4.91382e-04    pta      = 1.485657e-03
 +ptp     = 1.485657e-03   cgdo     = cgon           cgso     = cgon
 +xti     = 3              n        = 1              capmod   = 0
 +nqsmod  = 0              xpart    = 1              cf       = 0 
 +calcacm = 1              sfvtflag = 0              vfbflag  = 1       
 +js      = 6.27496e-05    jsw      = 5.79847e-10          )    
 *
 *
 .model nch.3             nmos   (                    lmin    = 3.5e-07         
 +lmax    = '8.07e-07-dxl'  wmin    = '1.183e-06-dxw' wmax    = '1.9983e-5-dxw' 
 +level   = 49              tnom    = 25              version = 3.1             
 +acm     = 12              ldif    = 1.2e-07         hdif    = hdifn           
 +rsh     = 82.2            rd      = 0               rs      = 0               
 +tox     = toxn            xj      = 1e-07           nch     = 2.3579e+17      
 +lln     = 1               lwn     = 1               wln     = 1               
 +wwn     = 1               lint    = 4e-08           ll      = 0               
 +lw      = 0               lwl     = 0               wint    = 4e-08           
 +wl      = 0               ww      = 0               wwl     = 0               
 +mobmod  = 1               binunit = 2               xl      = '3e-08+dxl'     
 +xw      = '1.5e-07+dxw'   dwg     = 0               dwb     = 0               
 +vth0    = 'dvtn+0.582913' lvth0   = -2.479376e-09   wvth0   = -6.03258e-08    
 +pvth0   = 1.639944e-14    k1      = 0.4858325       lk1     = 2.327254e-08    
 +wk1     = 6.104411e-08    pk1     = -3.97542e-14    k2      = 0.04534535      
 +lk2     = -1.970772e-08   wk2     = -1.945053e-09   pk2     = 5.415533e-15    
 +k3      = 0               dvt0    = 0               dvt1    = 0               
 +dvt2    = 0               dvt0w   = 0               dvt1w   = 0               
 +dvt2w   = 0               nlx     = 0               w0      = 0               
 +k3b     = 0               vsat    = 95126.3         lvsat   = 0.0003263514    
 +wvsat   = 0.0276876       pvsat   = -6.543329e-09   ua      = 0               
 +ub      = 2.104607e-18    lub     = -1.31162e-25    wub     = -5.904336e-25   
 +pub     = -9.399655e-32   uc      = 6.617273e-11    luc     = -4.801916e-18   
 +wuc     = -4.640422e-17   puc     = 5.540488e-24    rdsw    = 750             
 +prwb    = 0               prwg    = 0               wr      = 1               
 +u0      = 0.04861747      lu0     = -6.251291e-10   wu0     = -1.520027e-08   
 +pu0     = -2.184713e-16   a0      = 0.7344329       la0     = 1.289558e-08    
 +wa0     = -2.513495e-07   pa0     = 2.537071e-13    keta    = 0.01065971      
 +lketa   = -3.526753e-09   wketa   = -3.419267e-08   pketa   = 2.725872e-14    
 +a1      = 0               a2      = 0.99            ags     = 0.2223535       
 +lags    = -1.673124e-07   wags    = -3.122171e-07   pags    = 2.161134e-13    
 +b0      = 0               b1      = 0               voff    = -0.0716667      
 +lvoff   = -2.66569e-10    wvoff   = -6.081282e-08   pvoff   = 1.949458e-14    
 +nfactor = 1.373063        lnfactor= -1.051655e-07   wnfactor= -4.708978e-07   
 +pnfactor= -8.646475e-15   cit     = -9.014477e-05   lcit    = 5.583969e-11    
 +wcit    = 2.859396e-10    pcit    = 5.046674e-17    cdsc    = 0               
 +cdscb   = 0               cdscd   = 0               eta0    = -0.0003508224   
 +leta0   = 9.584137e-10    weta0   = -1.229799e-09   peta0   = 6.146112e-16    
 +etab    = 0.001435363     letab   = -1.084047e-09   wetab   = -1.334921e-09   
 +petab   = 9.599482e-16    dsub    = 0               pclm    = 0.7913016       
 +lpclm   = 1.748337e-08    wpclm   = -2.414444e-08   ppclm   = 4.621286e-15    
 +pdiblc1 = 1e-05           pdiblc2 = 0.0001653532    lpdiblc2= 3.22198e-09     
 +wpdiblc2= -3.987821e-11   ppdiblc2= -3.287649e-16   pdiblcb = 0.3624882       
 +lpdiblcb= -6.83252e-08    wpdiblcb= -1.827158e-07   ppdiblcb= 1.171009e-14    
 +drout   = 0               pscbe1  = 3.496792e+08    lpscbe1 = 45.26074        
 +wpscbe1 = -43.00555       ppscbe1 = 1.504091e-05    pscbe2  = 4.060865e-06    
 +lpscbe2 = 6.469898e-13    wpscbe2 = -5.382114e-12   ppscbe2 = 1.333792e-18    
 +pvag    = 0               delta   = 0.01            alpha0  = 2.5e-06  
 +beta0   = 20.7            kt1     = -0.4001584      lkt1    = 4.595524e-08    
 +wkt1    = 2.659199e-07    pkt1    = -1.03384e-13    kt2     = -0.03018077     
 +lkt2    = 4.603183e-09    wkt2    = 1.978027e-08    pkt2    = -7.385543e-15   
 +at      = -1454.14        lat     = 0.003396435     wat     = -0.01336298     
 +pat     = -5.556333e-09   ute     = -2.743312       lute    = 1.493698e-07    
 +wute    = 1.759122e-06    pute    = -4.817859e-13   ua1     = -2.551773e-09   
 +lua1    = 4.610171e-16    wua1    = 5.268021e-15    pua1    = -2.32889e-21    
 +ub1     = 1.096567e-18    lub1    = -4.205904e-25   wub1    = -6.127881e-24   
 +pub1    = 3.667946e-30    uc1     = 1.205581e-11    luc1    = -7.000217e-18   
 +wuc1    = -1.569118e-16   puc1    = 7.615527e-23    kt1l    = 0               
 +prt     = 0.2675717       lprt    = -1.802119e-06   wprt    = 8.331496e-06    
 +pprt    = -2.768447e-11  
 +cj      = cjn            cjsw     = cjswn          cjswg    = cjswgn 
 +mj      = 0.3297355      mjsw     = 0.1303453      mjswg    = 0.1303453
 +pb      = 0.6944804      pbsw     = 0.6944804      pbswg    = 0.6944804
 +cta     = 9.42521e-4     ctp      = 4.91382e-04    pta      = 1.485657e-03
 +ptp     = 1.485657e-03   cgdo     = cgon           cgso     = cgon
 +xti     = 3              n        = 1              capmod   = 0
 +nqsmod  = 0              xpart    = 1              cf       = 0 
 +calcacm = 1              sfvtflag = 0              vfbflag  = 1       
 +js      = 6.27496e-05    jsw      = 5.79847e-10          ) 
 *
 *
 .model nch.4             nmos   (                    lmin    = '1.207e-06-dxl' 
 +lmax    = 2.01e-05        wmin    = '7.83e-07-dxw'  wmax    = '1.183e-06-dxw' 
 +level   = 49              tnom    = 25              version = 3.1             
 +acm     = 12              ldif    = 1.2e-07         hdif    = hdifn           
 +rsh     = 82.2            rd      = 0               rs      = 0               
 +tox     = toxn            xj      = 1e-07           nch     = 2.3579e+17      
 +lln     = 1               lwn     = 1               wln     = 1               
 +wwn     = 1               lint    = 4e-08           ll      = 0               
 +lw      = 0               lwl     = 0               wint    = 4e-08           
 +wl      = 0               ww      = 0               wwl     = 0               
 +mobmod  = 1               binunit = 2               xl      = '3e-08+dxl'     
 +xw      = '1.5e-07+dxw'   dwg     = 0               dwb     = 0               
 +vth0    = 'dvtn+0.528243' lvth0   = 1.080427e-08    wvth0   = -1.156297e-08   
 +pvth0   = 8.55473e-15     k1      = 0.4545522       lk1     = 3.322464e-08    
 +wk1     = 3.753591e-08    pk1     = -4.005616e-14   k2      = 0.02647978      
 +lk2     = 7.992918e-09    wk2     = 6.561244e-09    pk2     = -1.48315e-14    
 +k3      = 0               dvt0    = 0               dvt1    = 0               
 +dvt2    = 0               dvt0w   = 0               dvt1w   = 0               
 +dvt2w   = 0               nlx     = 0               w0      = 0               
 +k3b     = 0               vsat    = 96507.23        ua      = -7.217974e-10   
 +lua     = 8.351195e-16    wua     = 3.036106e-16    pua     = -3.512775e-22   
 +ub      = 2.902607e-18    lub     = -1.401372e-24   wub     = -1.018808e-24   
 +pub     = 7.304723e-31    uc      = 7.178552e-11    luc     = -2.088186e-17   
 +wuc     = -4.563875e-17   puc     = 1.122583e-23    rdsw    = 750             
 +prwb    = 0               prwg    = 0               wr      = 1               
 +u0      = 0.03723282      lu0     = -2.798723e-09   wu0     = -4.527918e-09   
 +pu0     = 6.28339e-15     a0      = 1.848904        la0     = -5.194055e-07   
 +wa0     = -1.026417e-06   pa0     = 8.245877e-13    keta    = 0.01166675      
 +lketa   = -2.805299e-09   wketa   = -5.86025e-10    pketa   = 2.598561e-15    
 +a1      = 0               a2      = 0.99            ags     = 0.7010739       
 +lags    = -4.640424e-07   wags    = -5.956526e-07   pags    = 6.8917e-13      
 +b0      = 0               b1      = 0               voff    = -0.1212307      
 +lvoff   = 2.456386e-08    nfactor = 0.8705778       lnfactor= -1.828959e-08   
 +wnfactor= -6.481431e-08   pnfactor= 4.740038e-14    cit     = 0.0002549786    
 +lcit    = -4.391399e-11   wcit    = 5.092893e-11    pcit    = -7.546486e-18   
 +cdsc    = 0               cdscb   = 0               cdscd   = 0               
 +eta0    = -8.412339e-05   leta0   = 1.002234e-09    weta0   = 1.585833e-10    
 +peta0   = -3.047557e-16   etab    = -3.010733e-05   letab   = 1.752946e-10    
 +wetab   = 3.772446e-11    petab   = -2.19644e-16    dsub    = 0               
 +pclm    = 0.1692336       lpclm   = 6.140966e-07    pdiblc1 = 1e-05           
 +pdiblc2 = -0.000347682    lpdiblc2= 1.437708e-09    wpdiblc2= 2.938791e-10    
 +ppdiblc2= 1.418466e-15    pdiblcb = 0.1387533       drout   = 0               
 +pscbe1  = 3.519534e+08    lpscbe1 = -125.1231       wpscbe1 = 76.38679        
 +ppscbe1 = 7.977505e-05    pscbe2  = -8.737216e-05   lpscbe2 = 9.863835e-11    
 +wpscbe2 = 1.596661e-10    ppscbe2 = -1.782013e-16   pvag    = 0               
 +delta   = 0.01            alpha0  = 2.5e-06         beta0   = 20.7            
 +kt1     = -0.1499315      lkt1    = -2.115566e-09   wkt1    = -1.223785e-07   
 +pkt1    = 4.266289e-14    kt2     = -0.02087417     lkt2    = 5.041189e-08    
 +wkt2    = 2.442399e-09    pkt2    = -4.761794e-14   at      = -21673.44       
 +lat     = 0.006954652     wat     = 0.02754232      pat     = -1.640881e-08   
 +ute     = -2.565965       lute    = 5.17659e-07     wute    = 1.094306e-06    
 +pute    = -8.332978e-13   ua1     = -1.6811e-09     lua1    = 1.19284e-15     
 +wua1    = 3.254065e-15    pua1    = -3.143271e-21   ub1     = -1.065109e-18   
 +lub1    = -2.464934e-25   wub1    = -1.331515e-24   pub1    = 2.754072e-30    
 +uc1     = -8.220291e-11   luc1    = -3.608129e-17   wuc1    = 7.412109e-18    
 +puc1    = 1.09683e-22     kt1l    = 0               prt     = -1223.895       
 +lprt    = 0.0009821714    wprt    = 0.001063665     pprt    = -1.230661e-09
 +cj      = cjn            cjsw     = cjswn          cjswg    = cjswgn 
 +mj      = 0.3297355      mjsw     = 0.1303453      mjswg    = 0.1303453
 +pb      = 0.6944804      pbsw     = 0.6944804      pbswg    = 0.6944804
 +cta     = 9.42521e-4     ctp      = 4.91382e-04    pta      = 1.485657e-03
 +ptp     = 1.485657e-03   cgdo     = cgon           cgso     = cgon
 +xti     = 3              n        = 1              capmod   = 0
 +nqsmod  = 0              xpart    = 1              cf       = 0 
 +calcacm = 1              sfvtflag = 0              vfbflag  = 1       
 +js      = 6.27496e-05    jsw      = 5.79847e-10          )   
 *
 *
 .model nch.5             nmos   (                    lmin    = '8.07e-07-dxl'  
 +lmax    = '1.207e-06-dxl' wmin    = '7.83e-07-dxw'  wmax    = '1.183e-06-dxw' 
 +level   = 49              tnom    = 25              version = 3.1             
 +acm     = 12              ldif    = 1.2e-07         hdif    = hdifn           
 +rsh     = 82.2            rd      = 0               rs      = 0               
 +tox     = toxn            xj      = 1e-07           nch     = 2.3579e+17      
 +lln     = 1               lwn     = 1               wln     = 1               
 +wwn     = 1               lint    = 4e-08           ll      = 0               
 +lw      = 0               lwl     = 0               wint    = 4e-08           
 +wl      = 0               ww      = 0               wwl     = 0               
 +mobmod  = 1               binunit = 2               xl      = '3e-08+dxl'     
 +xw      = '1.5e-07+dxw'   dwg     = 0               dwb     = 0               
 +vth0    = 'dvtn+0.467619' lvth0   = 8.094657e-08    wvth0   = 4.90438e-08     
 +pvth0   = -6.156729e-14   k1      = 0.358099        lk1     = 1.44821e-07     
 +wk1     = 7.01475e-08     pk1     = -7.778778e-14   k2      = 0.07054502      
 +lk2     = -4.299056e-08   wk2     = -4.113562e-08   pk2     = 4.035377e-14    
 +k3      = 0               dvt0    = 0               dvt1    = 0               
 +dvt2    = 0               dvt0w   = 0               dvt1w   = 0               
 +dvt2w   = 0               nlx     = 0               w0      = 0               
 +k3b     = 0               vsat    = 78576.45        lvsat   = 0.02074592      
 +wvsat   = -0.01132088     pvsat   = 1.309826e-08    ua      = 0               
 +ub      = 5.741077e-19    lub     = 1.292701e-24    wub     = 1.062641e-24    
 +pub     = -1.677764e-30   uc      = 3.660264e-11    luc     = 1.982473e-17    
 +wuc     = -2.295341e-17   puc     = -1.502111e-23   rdsw    = 750             
 +prwb    = 0               prwg    = 0               wr      = 1               
 +u0      = 0.03874022      lu0     = -4.542793e-09   wu0     = -3.769856e-09   
 +pu0     = 5.406313e-15    a0      = 2.791505        la0     = -1.609995e-06   
 +wa0     = -1.271796e-06   pa0     = 1.108491e-12    keta    = 0.0321512       
 +lketa   = -2.65058e-08    wketa   = -1.965488e-08   pketa   = 2.466123e-14    
 +a1      = 0               a2      = 0.99            ags     = 0.9056002       
 +lags    = -7.006794e-07   b0      = 0               b1      = 0               
 +voff    = -0.1            nfactor = 0.7543952       lnfactor= 1.161336e-07    
 +wnfactor= 6.998602e-08    pnfactor= -1.085636e-13   cit     = 0.000285048     
 +lcit    = -7.870424e-11   wcit    = -7.062511e-11   pcit    = 1.330915e-16    
 +cdsc    = 0               cdscb   = 0               cdscd   = 0               
 +eta0    = 0.003352228     leta0   = -2.973624e-09   weta0   = -3.048375e-09   
 +peta0   = 3.405695e-15    etab    = 0.0006475641    letab   = -6.087711e-10   
 +wetab   = -6.928325e-10   petab   = 6.256102e-16    dsub    = 0               
 +pclm    = 1.032518        lpclm   = -3.847236e-07   wpclm   = -6.537757e-07   
 +ppclm   = 7.564184e-13    pdiblc1 = 1e-05           pdiblc2 = -0.00416775     
 +lpdiblc2= 5.857526e-09    wpdiblc2= 3.274343e-09    ppdiblc2= -2.029931e-15   
 +pdiblcb = 0.1387533       drout   = 0               pscbe1  = 1.089719e+08    
 +lpscbe1 = 156.0066        wpscbe1 = 240.2935        ppscbe1 = -0.000109865    
 +pscbe2  = -5.255092e-06   lpscbe2 = 3.628897e-12    wpscbe2 = 1.043208e-11    
 +ppscbe2 = -5.537501e-18   pvag    = 0               delta   = 0.01            
 +alpha0  = 2.5e-06         beta0   = 20.7            kt1     = -0.09596287     
 +lkt1    = -6.455721e-08   wkt1    = -1.169567e-07   pkt1    = 3.638983e-14    
 +kt2     = 0.07813779      lkt2    = -6.414494e-08   wkt2    = -8.944794e-08   
 +pkt2    = 5.869918e-14    at      = -110972.9       lat     = 0.1102741       
 +wat     = 0.1529166       pat     = -1.614668e-07   ute     = -3.559982       
 +lute    = 1.667736e-06    wute    = 1.777075e-06    pute    = -1.623261e-12   
 +ua1     = -5.651362e-10   lua1    = -9.832879e-17   wua1    = 3.654639e-16    
 +pua1    = 1.9884e-22      ub1     = -6.47051e-19    lub1    = -7.301864e-25   
 +wub1    = 3.564699e-25    pub1    = 8.010748e-31    uc1     = -8.009362e-12   
 +luc1    = -1.219232e-16   wuc1    = -5.362414e-18   puc1    = 1.244631e-22    
 +kt1l    = 0               prt     = -2390.559       lprt    = 0.002332001     
 +wprt    = 0.00169471      pprt    = -1.960779e-09   
 +cj      = cjn            cjsw     = cjswn          cjswg    = cjswgn 
 +mj      = 0.3297355      mjsw     = 0.1303453      mjswg    = 0.1303453
 +pb      = 0.6944804      pbsw     = 0.6944804      pbswg    = 0.6944804
 +cta     = 9.42521e-4     ctp      = 4.91382e-04    pta      = 1.485657e-03
 +ptp     = 1.485657e-03   cgdo     = cgon           cgso     = cgon
 +xti     = 3              n        = 1              capmod   = 0
 +nqsmod  = 0              xpart    = 1              cf       = 0 
 +calcacm = 1              sfvtflag = 0              vfbflag  = 1       
 +js      = 6.27496e-05    jsw      = 5.79847e-10          )
 *
 *
 .model nch.6             nmos   (                    lmin    = 3.5e-07         
 +lmax    = '8.07e-07-dxl'  wmin    = '7.83e-07-dxw'  wmax    = '1.183e-06-dxw' 
 +level   = 49              tnom    = 25              version = 3.1             
 +acm     = 12              ldif    = 1.2e-07         hdif    = hdifn           
 +rsh     = 82.2            rd      = 0               rs      = 0               
 +tox     = toxn            xj      = 1e-07           nch     = 2.3579e+17      
 +lln     = 1               lwn     = 1               wln     = 1               
 +wwn     = 1               lint    = 4e-08           ll      = 0               
 +lw      = 0               lwl     = 0               wint    = 4e-08           
 +wl      = 0               ww      = 0               wwl     = 0               
 +mobmod  = 1               binunit = 2               xl      = '3e-08+dxl'     
 +xw      = '1.5e-07+dxw'   dwg     = 0               dwb     = 0               
 +vth0    = 'dvtn+0.574607' lvth0   = -4.339362e-11   wvth0   = -4.991848e-08   
 +pvth0   = 1.334716e-14    k1      = 0.5850455       lk1     = -2.697753e-08   
 +wk1     = -6.326979e-08   pk1     = 2.320913e-14    k2      = 0.03486114      
 +lk2     = -1.597786e-08   wk2     = 1.119166e-08    pk2     = 7.420165e-16    
 +k3      = 0               dvt0    = 0               dvt1    = 0               
 +dvt2    = 0               dvt0w   = 0               dvt1w   = 0               
 +dvt2w   = 0               nlx     = 0               w0      = 0               
 +k3b     = 0               vsat    = 119212.2        lvsat   = -0.01001536     
 +wvsat   = -0.002492058    pvsat   = 6.414841e-09    ua      = -1.425246e-09   
 +lua     = 1.078912e-15    wua     = 1.785833e-15    pua     = -1.351876e-21   
 +ub      = 4.112102e-18    lub     = -1.385562e-24   wub     = -3.105826e-24   
 +pub     = 1.477766e-30    uc      = 4.050535e-11    luc     = 1.687038e-17    
 +wuc     = -1.424299e-17   puc     = -2.161491e-23   rdsw    = 750             
 +prwb    = 0               prwg    = 0               wr      = 1               
 +u0      = 0.02507698      lu0     = 5.800281e-09    wu0     = 1.429596e-08    
 +pu0     = -8.26951e-15    a0      = 0.3001916       la0     = 2.759296e-07    
 +wa0     = 2.92755e-07     pa0     = -7.587451e-14   keta    = -0.05698659     
 +lketa   = 4.097151e-08    wketa   = 5.056813e-08    pketa   = -2.84976e-14    
 +a1      = 0               a2      = 0.99            ags     = -0.0458255      
 +lags    = 1.954991e-08    wags    = 2.381111e-08    pags    = -1.802502e-14   
 +b0      = 0               b1      = 0               voff    = -0.141804       
 +lvoff   = 3.164562e-08    wvoff   = 2.706921e-08    pvoff   = -2.049139e-14   
 +nfactor = 1.157475        lnfactor= -1.889977e-07   wnfactor= -2.007654e-07   
 +pnfactor= 9.63953e-14     cit     = 0.0001456854    lcit    = 2.679317e-11    
 +wcit    = -9.555716e-12   pcit    = 8.686202e-17    cdsc    = 0               
 +cdscb   = 0               cdscd   = 0               eta0    = -0.006824942    
 +leta0   = 4.730496e-09    weta0   = 6.882274e-09    peta0   = -4.111808e-15   
 +etab    = 0.0002038415    letab   = -2.728731e-10   wetab   = 2.081748e-10    
 +petab   = -5.645233e-17   dsub    = 0               pclm    = 0.8004329       
 +lpclm   = -2.090351e-07   wpclm   = -3.558609e-08   ppclm   = 2.884489e-13    
 +pdiblc1 = 1e-05           pdiblc2 = 0.005613619     lpdiblc2= -1.546974e-09   
 +wpdiblc2= -6.866557e-09   ppdiblc2= 5.646734e-15    pdiblcb = 0.1320065       
 +lpdiblcb= 5.107366e-09    wpdiblcb= 1.060778e-07    ppdiblcb= -8.030091e-14   
 +drout   = 0               pscbe1  = 6.561562e+07    lpscbe1 = 188.8273        
 +wpscbe1 = 312.9262        ppscbe1 = -0.000164848    pscbe2  = -1.060816e-05   
 +lpscbe2 = 7.681177e-12    wpscbe2 = 1.299818e-11    ppscbe2 = -7.480043e-18   
 +pvag    = 0               delta   = 0.01            alpha0  = 2.5e-06   
 +beta0   = 20.7            kt1     = -0.2037678      lkt1    = 1.705115e-08    
 +wkt1    = 1.984253e-08    pkt1    = -6.716717e-14   kt2     = -0.01380252     
 +lkt2    = 5.453875e-09    wkt2    = -7.416772e-10   pkt2    = -8.45146e-15    
 +at      = 92820.91        lat     = -0.04399785     wat     = -0.1314896      
 +pat     = 5.382871e-08    ute     = 0.1429917       lute    = -1.135416e-06   
 +wute    = -1.857417e-06   pute    = 1.12805e-12     ua1     = 7.997219e-09    
 +lua1    = -6.580034e-15   wua1    = -7.949868e-15   pua1    = 6.493548e-21    
 +ub1     = -1.595098e-17   lub1    = 1.08549e-23     wub1    = 1.52327e-23     
 +pub1    = -1.046024e-29   uc1     = -4.433896e-10   luc1    = 2.076597e-16    
 +wuc1    = 4.137613e-16    puc1    = -1.928136e-22   kt1l    = 0               
 +prt     = 1397.411        lprt    = -0.0005354923   wprt    = -0.001742289    
 +pprt    = 6.410293e-10
 +cj      = cjn            cjsw     = cjswn          cjswg    = cjswgn 
 +mj      = 0.3297355      mjsw     = 0.1303453      mjswg    = 0.1303453
 +pb      = 0.6944804      pbsw     = 0.6944804      pbswg    = 0.6944804
 +cta     = 9.42521e-4     ctp      = 4.91382e-04    pta      = 1.485657e-03
 +ptp     = 1.485657e-03   cgdo     = cgon           cgso     = cgon
 +xti     = 3              n        = 1              capmod   = 0
 +nqsmod  = 0              xpart    = 1              cf       = 0 
 +calcacm = 1              sfvtflag = 0              vfbflag  = 1       
 +js      = 6.27496e-05    jsw      = 5.79847e-10          )    
 *
 *
 .model nch.7             nmos   (                    lmin    = '1.207e-06-dxl' 
 +lmax    = 2.01e-05        wmin    = 4e-07           wmax    = '7.83e-07-dxw'  
 +level   = 49              tnom    = 25              version = 3.1             
 +acm     = 12              ldif    = 1.2e-07         hdif    = hdifn           
 +rsh     = 82.2            rd      = 0               rs      = 0               
 +tox     = toxn            xj      = 1e-07           nch     = 2.3579e+17      
 +lln     = 1               lwn     = 1               wln     = 1               
 +wwn     = 1               lint    = 4e-08           ll      = 0               
 +lw      = 0               lwl     = 0               wint    = 4e-08           
 +wl      = 0               ww      = 0               wwl     = 0               
 +mobmod  = 1               binunit = 2               xl      = '3e-08+dxl'     
 +xw      = '1.5e-07+dxw'   dwg     = 0               dwb     = 0               
 +vth0    = 'dvtn+0.544538' lvth0   = 1.720274e-08    wvth0   = -2.546298e-08   
 +pvth0   = 3.096841e-15    k1      = 0.5502741       lk1     = -3.125255e-08   
 +wk1     = -4.411482e-08   pk1     = 1.494289e-14    k2      = 0.01727784      
 +lk2     = -1.487584e-08   wk2     = 1.441049e-08    pk2     = 4.675549e-15    
 +k3      = 0               dvt0    = 0               dvt1    = 0               
 +dvt2    = 0               dvt0w   = 0               dvt1w   = 0               
 +dvt2w   = 0               nlx     = 0               w0      = 0               
 +k3b     = 0               vsat    = 96507.23        ua      = -7.802065e-10   
 +lua     = 9.026988e-16    wua     = 3.534335e-16    pua     = -4.089226e-22   
 +ub      = 1.893473e-18    lub     = -5.306664e-25   wub     = -1.580168e-25   
 +pub     = -1.223976e-32   uc      = 2.085218e-11    luc     = 1.298873e-17    
 +wuc     = -2.192611e-18   puc     = -1.766579e-23   rdsw    = 750             
 +prwb    = 0               prwg    = 0               wr      = 1               
 +u0      = 0.03104484      lu0     = 4.876105e-09    wu0     = 7.504263e-10    
 +pu0     = -2.632391e-16   a0      = 0.5611327       la0     = 5.492548e-07    
 +wa0     = 7.205156e-08    pa0     = -8.697965e-14   keta    = 0.01632805      
 +lketa   = 1.817118e-09    wketa   = -4.562111e-09   pketa   = -1.344362e-15   
 +a1      = 0               a2      = 0.99            ags     = 0.001377129     
 +lags    = 3.717127e-07    wags    = 1.188842e-09    pags    = -2.372926e-14   
 +b0      = 0               b1      = 0               voff    = -0.1332525      
 +lvoff   = 3.847315e-08    wvoff   = 1.025464e-08    pvoff   = -1.186462e-14   
 +nfactor = 1.473942        lnfactor= -7.516272e-07   wnfactor= -5.794843e-07   
 +pnfactor= 6.729374e-13    cit     = -0.0006621464   lcit    = 1.027861e-09    
 +wcit    = 8.332366e-10    pcit    = -9.217706e-16   cdsc    = 0               
 +cdscb   = 0               cdscd   = 0               eta0    = 7.131314e-05    
 +leta0   = 5.99268e-10     weta0   = 2.599593e-11    peta0   = 3.897462e-17    
 +etab    = 2.000076e-05    letab   = -4.256616e-10   wetab   = -5.017732e-12   
 +petab   = 2.929716e-16    dsub    = 0               pclm    = 0.1762022       
 +lpclm   = 4.750038e-07    wpclm   = -5.944212e-09   ppclm   = 1.186463e-13    
 +pdiblc1 = 1e-05           pdiblc2 = 0.0002290868    lpdiblc2= 8.598363e-10    
 +wpdiblc2= -1.981044e-10   ppdiblc2= 1.91139e-15     pdiblcb = 0.1304779       
 +lpdiblcb= 1.651774e-07    wpdiblcb= 7.058936e-09    ppdiblcb= -1.408963e-13   
 +drout   = 0               pscbe1  = 4.235152e+08    lpscbe1 = -58.8318        
 +wpscbe1 = 15.34459        ppscbe1 = 2.322858e-05    pscbe2  = 7.703648e-05    
 +lpscbe2 = -8.780832e-11   wpscbe2 = 1.942555e-11    ppscbe2 = -1.916228e-17   
 +pvag    = 0               delta   = 0.01            alpha0  = 2.5e-06 
 +beta0   = 20.7            kt1     = -0.3097948      lkt1    = 8.128185e-08    
 +wkt1    = 1.398491e-08    pkt1    = -2.847512e-14   kt2     = -0.005076239    
 +lkt2    = -4.617562e-08   wkt2    = -1.103323e-08   pkt2    = 3.477121e-14    
 +at      = 82328.36        lat     = -0.08739209     wat     = -0.06117122     
 +pat     = 6.406897e-08    ute     = -1.349974       lute    = -6.17695e-07    
 +wute    = 5.706533e-08    pute    = 1.351592e-13    ua1     = 3.045211e-09    
 +lua1    = -4.130031e-15   wua1    = -7.774787e-16   pua1    = 1.397139e-21    
 +ub1     = -3.662418e-18   lub1    = 4.251251e-24    wub1    = 8.839907e-25    
 +pub1    = -1.082504e-30   uc1     = -1.046373e-10   luc1    = 1.031438e-16    
 +wuc1    = 2.654866e-17    puc1    = -9.075983e-24   kt1l    = 0               
 +prt     = 473.8944        lprt    = -0.0009821708   wprt    = -0.0003845492   
 +pprt    = 4.449234e-10    
 +cj      = cjn            cjsw     = cjswn          cjswg    = cjswgn 
 +mj      = 0.3297355      mjsw     = 0.1303453      mjswg    = 0.1303453
 +pb      = 0.6944804      pbsw     = 0.6944804      pbswg    = 0.6944804
 +cta     = 9.42521e-4     ctp      = 4.91382e-04    pta      = 1.485657e-03
 +ptp     = 1.485657e-03   cgdo     = cgon           cgso     = cgon
 +xti     = 3              n        = 1              capmod   = 0
 +nqsmod  = 0              xpart    = 1              cf       = 0 
 +calcacm = 1              sfvtflag = 0              vfbflag  = 1       
 +js      = 6.27496e-05    jsw      = 5.79847e-10          )
 *
 *
 .model nch.8             nmos   (                    lmin    = '8.07e-07-dxl'  
 +lmax    = '1.207e-06-dxl' wmin    = 4e-07           wmax    = '7.83e-07-dxw'  
 +level   = 49              tnom    = 25              version = 3.1             
 +acm     = 12              ldif    = 1.2e-07         hdif    = hdifn           
 +rsh     = 82.2            rd      = 0               rs      = 0               
 +tox     = toxn            xj      = 1e-07           nch     = 2.3579e+17      
 +lln     = 1               lwn     = 1               wln     = 1               
 +wwn     = 1               lint    = 4e-08           ll      = 0               
 +lw      = 0               lwl     = 0               wint    = 4e-08           
 +wl      = 0               ww      = 0               wwl     = 0               
 +mobmod  = 1               binunit = 2               xl      = '3e-08+dxl'     
 +xw      = '1.5e-07+dxw'   dwg     = 0               dwb     = 0               
 +vth0    = 'dvtn+0.611238' lvth0   = -5.996844e-08   wvth0   = -7.346332e-08   
 +pvth0   = 5.863323e-14    k1      = 0.4463096       lk1     = 8.903435e-08    
 +wk1     = -5.096067e-09   pk1     = -3.02018e-14    k2      = -0.009934468    
 +lk2     = 1.660881e-08    wk2     = 2.751338e-08    pk2     = -1.048449e-14   
 +k3      = 0               dvt0    = 0               dvt1    = 0               
 +dvt2    = 0               dvt0w   = 0               dvt1w   = 0               
 +dvt2w   = 0               nlx     = 0               w0      = 0               
 +k3b     = 0               vsat    = 51524.56        lvsat   = 0.05204498      
 +wvsat   = 0.01175437      pvsat   = -1.359984e-08   ua      = 0               
 +ub      = 1.684949e-18    lub     = -2.894038e-25   wub     = 1.150939e-25    
 +pub     = -3.282287e-31   uc      = -5.621833e-11   luc     = 1.021593e-16    
 +wuc     = 5.62229e-17     puc     = -8.525252e-23   rdsw    = 750             
 +prwb    = 0               prwg    = 0               wr      = 1               
 +u0      = 0.03584241      lu0     = -6.746811e-10   wu0     = -1.298021e-09   
 +pu0     = 2.106814e-15    a0      = 1.069539        la0     = -3.897101e-08   
 +wa0     = 1.970411e-07    pa0     = -2.315925e-13   keta    = 0.01530131      
 +lketa   = 3.005051e-09    wketa   = -5.28193e-09    pketa   = -5.115318e-16   
 +a1      = 0               a2      = 0.99            ags     = 0.5853289       
 +lags    = -3.039196e-07   wags    = 2.731914e-07    pags    = -3.384361e-13   
 +b0      = 0               b1      = 0               voff    = -0.1            
 +nfactor = 0.6173926       lnfactor= 2.394008e-07    wnfactor= 1.868493e-07    
 +pnfactor= -2.137105e-13   cit     = 0.0003063107    lcit    = -9.264402e-11   
 +wcit    = -8.876222e-11   pcit    = 1.449822e-16    cdsc    = 0               
 +cdscb   = 0               cdscd   = 0               eta0    = -0.0001093099   
 +leta0   = 8.082487e-10    weta0   = -9.568357e-11   peta0   = 1.797578e-16    
 +etab    = -0.001177763    letab   = 9.601505e-10    wetab   = 8.641713e-10    
 +petab   = -7.1268e-16     dsub    = 0               pclm    = 0.0900574       
 +lpclm   = 5.746733e-07    wpclm   = 1.501435e-07    ppclm   = -6.194717e-14   
 +pdiblc1 = 1e-05           pdiblc2 = -0.009213444    lpdiblc2= 1.178484e-08    
 +wpdiblc2= 7.578321e-09    ppdiblc2= -7.085934e-15   pdiblcb = 0.2732414       
 +wpdiblcb= -1.147183e-07   drout   = 0               pscbe1  = 2.142517e+08    
 +lpscbe1 = 183.286         wpscbe1 = 150.4898        ppscbe1 = -0.0001331344   
 +pscbe2  = -3.838787e-06   lpscbe2 = 5.764359e-12    wpscbe2 = 9.223971e-12    
 +ppscbe2 = -7.359051e-18   pvag    = 0               delta   = 0.01            
 +alpha0  = 2.5e-06         beta0   = 20.7            kt1     = -0.1747238      
 +lkt1    = -7.499526e-08   wkt1    = -4.977362e-08   pkt1    = 4.52935e-14     
 +kt2     = -0.09084979     lkt2    = 5.306439e-08    wkt2    = 5.469848e-08    
 +pkt2    = -4.128039e-14   at      = 156661.5        lat     = -0.1733955      
 +wat     = -0.07537551     pat     = 8.050333e-08    ute     = -1.664549       
 +lute    = -2.537307e-07   wute    = 1.602711e-07    pute    = 1.575007e-14    
 +ua1     = -1.327711e-09   lua1    = 9.29439e-16     wua1    = 1.01594e-15     
 +pua1    = -6.778459e-22   ub1     = -4.245534e-19   lub1    = 5.05042e-25     
 +wub1    = 1.666793e-25    pub1    = -2.525749e-31   uc1     = -1.090144e-10   
 +luc1    = 1.082081e-16    wuc1    = 8.079491e-17    puc1    = -7.183889e-23   
 +kt1l    = 0               prt     = 404.2872        lprt    = -0.0009016352   
 +wprt    = -0.0006892931   pprt    = 7.97512e-10     
 +cj      = cjn            cjsw     = cjswn          cjswg    = cjswgn 
 +mj      = 0.3297355      mjsw     = 0.1303453      mjswg    = 0.1303453
 +pb      = 0.6944804      pbsw     = 0.6944804      pbswg    = 0.6944804
 +cta     = 9.42521e-4     ctp      = 4.91382e-04    pta      = 1.485657e-03
 +ptp     = 1.485657e-03   cgdo     = cgon           cgso     = cgon
 +xti     = 3              n        = 1              capmod   = 0
 +nqsmod  = 0              xpart    = 1              cf       = 0 
 +calcacm = 1              sfvtflag = 0              vfbflag  = 1       
 +js      = 6.27496e-05    jsw      = 5.79847e-10          )
 *
 *
 .model nch.9             nmos   (                    lmin    = 3.5e-07         
 +lmax    = '8.07e-07-dxl'  wmin    = 4e-07           wmax    = '7.83e-07-dxw'  
 +level   = 49              tnom    = 25              version = 3.1             
 +acm     = 12              ldif    = 1.2e-07         hdif    = hdifn           
 +rsh     = 82.2            rd      = 0               rs      = 0               
 +tox     = toxn            xj      = 1e-07           nch     = 2.3579e+17      
 +lln     = 1               lwn     = 1               wln     = 1               
 +wwn     = 1               lint    = 4e-08           ll      = 0               
 +lw      = 0               lwl     = 0               wint    = 4e-08           
 +wl      = 0               ww      = 0               wwl     = 0               
 +mobmod  = 1               binunit = 2               xl      = '3e-08+dxl'     
 +xw      = '1.5e-07+dxw'   dwg     = 0               dwb     = 0               
 +vth0    = 'dvtn+0.525422' lvth0   = 4.993819e-09    wvth0   = -9.507126e-09   
 +pvth0   = 1.021839e-14    k1      = 0.5813381       lk1     = -1.318226e-08   
 +wk1     = -5.816663e-08   pk1     = 9.972617e-15    k2      = 0.02935361      
 +lk2     = -1.313227e-08   wk2     = 1.606665e-08    pk2     = -1.819316e-15   
 +k3      = 0               dvt0    = 0               dvt1    = 0               
 +dvt2    = 0               dvt0w   = 0               dvt1w   = 0               
 +dvt2w   = 0               nlx     = 0               w0      = 0               
 +k3b     = 0               vsat    = 124715.3        lvsat   = -0.003360439    
 +wvsat   = -0.005906745    pvsat   = -2.303697e-10   ua      = 1.237881e-09    
 +lua     = -9.370761e-16   wua     = -6.6957e-16     pua     = 5.068646e-22    
 +ub      = 2.303303e-20    lub     = 9.686662e-25    wub     = 5.506454e-25    
 +pub     = -6.579411e-31   uc      = 9.352798e-11    luc     = -1.119865e-17   
 +wuc     = -6.127926e-17   puc     = 3.696612e-24    rdsw    = 750             
 +prwb    = 0               prwg    = 0               wr      = 1               
 +u0      = 0.04878879      lu0     = -1.047509e-08   wu0     = -7.309575e-09   
 +pu0     = 6.65756e-15     a0      = 0.2731722       la0     = 5.638784e-07    
 +wa0     = 3.586827e-07    pa0     = -3.539552e-13   keta    = 0.01651734      
 +lketa   = 2.084521e-09    wketa   = -1.463331e-08   pketa   = 6.567465e-15    
 +a1      = 0               a2      = 0.99            ags     = -0.09344225     
 +lags    = 2.099102e-07    wags    = 9.137526e-08    pags    = -2.008013e-13   
 +b0      = 0               b1      = 0               voff    = -0.1301078      
 +lvoff   = 2.279158e-08    wvoff   = 1.628529e-08    pvoff   = -1.232797e-14   
 +nfactor = 1.136485        lnfactor= -1.535521e-07   wnfactor= -1.784141e-07   
 +pnfactor= 6.279391e-14    cit     = -9.737274e-05   lcit    = 2.129444e-10    
 +wcit    = 2.148746e-10    pcit    = -8.487093e-17   cdsc    = 0               
 +cdscb   = 0               cdscd   = 0               eta0    = 0.0001017259    
 +leta0   = 6.484946e-10    weta0   = 6.739802e-10    peta0   = -4.028777e-16   
 +etab    = 0.0005133018    letab   = -3.199854e-10   wetab   = -4.845151e-11   
 +petab   = -2.18245e-17    dsub    = 0               pclm    = 1.355904        
 +lpclm   = -3.835729e-07   wpclm   = -5.100177e-07   ppclm   = 4.377949e-13    
 +pdiblc1 = 1e-05           pdiblc2 = 0.002662655     lpdiblc2= 2.794636e-09    
 +wpdiblc2= -3.822584e-09   ppdiblc2= 1.544552e-15    pdiblcb = 0.5120286       
 +lpdiblcb= -1.807619e-07   wpdiblcb= -2.286922e-07   ppdiblcb= 8.627818e-14    
 +drout   = 0               pscbe1  = 4.613509e+08    lpscbe1 = -3.768093       
 +wpscbe1 = -35.53878       ppscbe1 = 7.689244e-06    pscbe2  = 4.618633e-06    
 +lpscbe2 = -6.379074e-13   wpscbe2 = -5.490942e-13   ppscbe2 = 3.915955e-20    
 +pvag    = 0               delta   = 0.01            alpha0  = 2.5e-06 
 +beta0   = 20.7            kt1     = -0.1251057      lkt1    = -1.125561e-07   
 +wkt1    = -6.342647e-08   pkt1    = 5.562872e-14    kt2     = -0.01401484     
 +lkt2    = -5.099672e-09   wkt2    = -2.188774e-09   pkt2    = 1.783267e-15    
 +at      = -99596.23       lat     = 0.02059158      wat     = 0.0334882       
 +pat     = -1.906498e-09   ute     = -2.786766       lute    = 5.957877e-07    
 +wute    = 7.692041e-07    pute    = -4.452122e-13   ua1     = -2.983657e-09   
 +lua1    = 2.182991e-15    wua1    = 2.243578e-15    pua1    = -1.607168e-21   
 +ub1     = 3.855079e-18    lub1    = -2.73464e-24    wub1    = -2.81326e-24    
 +pub1    = 2.003239e-30    uc1     = 1.684049e-10    luc1    = -1.017984e-16   
 +wuc1    = -1.267505e-16   puc1    = 8.527297e-23    kt1l    = 0               
 +prt     = -1377.407       lprt    = 0.0004471074    wprt    = 0.0006446759    
 +pprt    = -2.123025e-10   
 +cj      = cjn            cjsw     = cjswn          cjswg    = cjswgn 
 +mj      = 0.3297355      mjsw     = 0.1303453      mjswg    = 0.1303453
 +pb      = 0.6944804      pbsw     = 0.6944804      pbswg    = 0.6944804
 +cta     = 9.42521e-4     ctp      = 4.91382e-04    pta      = 1.485657e-03
 +ptp     = 1.485657e-03   cgdo     = cgon           cgso     = cgon
 +xti     = 3              n        = 1              capmod   = 0
 +nqsmod  = 0              xpart    = 1              cf       = 0 
 +calcacm = 1              sfvtflag = 0              vfbflag  = 1       
 +js      = 6.27496e-05    jsw      = 5.79847e-10          )
 *
 *
 .model nch.10            nmos   (                    lmin    = '1.207e-06-dxl' 
 +lmax    = 2.01e-05        wmin    = '1.9983e-5-dxw' wmax    = 0.0002001       
 +level   = 49              tnom    = 25              version = 3.1             
 +acm     = 12              ldif    = 1.2e-07         hdif    = hdifn           
 +rsh     = 82.2            rd      = 0               rs      = 0               
 +tox     = toxn            xj      = 1e-07           nch     = 2.3579e+17      
 +lln     = 1               lwn     = 1               wln     = 1               
 +wwn     = 1               lint    = 4e-08           ll      = 0               
 +lw      = 0               lwl     = 0               wint    = 4e-08           
 +wl      = 0               ww      = 0               wwl     = 0               
 +mobmod  = 1               binunit = 2               xl      = '3e-08+dxl'     
 +xw      = '1.5e-07+dxw'   dwg     = 0               dwb     = 0               
 +vth0    = 'dvtn+0.523596' lvth0   = 4.430968e-08    wvth0   = 2.279147e-07    
 +pvth0   = -1.658529e-13   k1      = 0.5035352       lk1     = -1.691519e-08   
 +wk1     = 3.732626e-07    pk1     = 3.252572e-14    k2      = 0.02639952      
 +lk2     = 3.398003e-09    wk2     = 1.980659e-08    pk2     = -1.967438e-13   
 +k3      = 0               dvt0    = 0               dvt1    = 0               
 +dvt2    = 0               dvt0w   = 0               dvt1w   = 0               
 +dvt2w   = 0               nlx     = 0               w0      = 0               
 +k3b     = 0               vsat    = 96575.78        lvsat   = -0.001368327    
 +wvsat   = -0.01371178     pvsat   = 2.736871e-07    ua      = -7.243246e-10   
 +lua     = 8.380434e-16    wua     = 1.452271e-14    pua     = -1.680277e-20   
 +ub      = 2.507682e-18    lub     = -9.292725e-25   wub     = -9.214355e-24   
 +pub     = 2.931189e-29    uc      = 4.653199e-11    luc     = -2.983065e-18   
 +wuc     = 3.755784e-16    puc     = 4.023481e-22    rdsw    = 750             
 +prwb    = 0               prwg    = 0               wr      = 1               
 +u0      = 0.03921134      lu0     = 6.986588e-09    wu0     = 1.319081e-07    
 +pu0     = -3.363066e-14   a0      = 0.5149775       la0     = 5.62179e-07     
 +wa0     = 3.965712e-07    pa0     = -6.604507e-13   keta    = 0.002816328     
 +lketa   = 1.495658e-09    wketa   = -1.99353e-07    pketa   = 4.208207e-13    
 +a1      = 0               a2      = 0.99            ags     = -0.0002663955   
 +lags    = 1.790876e-07    wags    = 2.118263e-06    pags    = -1.182575e-12   
 +b0      = 0               b1      = 0               voff    = -0.118934       
 +lvoff   = 2.319556e-08    wvoff   = -4.593862e-07   pvoff   = 2.736873e-13    
 +nfactor = 1.089919        lnfactor= 9.594396e-08    wnfactor= -6.849148e-07   
 +pnfactor= -7.894476e-12   cit     = -0.0001081982   lcit    = -1.689249e-10   
 +wcit    = 1.105833e-09    pcit    = 8.443418e-15    cdsc    = 0               
 +cdscb   = 0               cdscd   = 0               eta0    = 7.25065e-05     
 +leta0   = 9.311983e-10    weta0   = 2.699823e-09    peta0   = -8.521816e-15   
 +etab    = 1.007015e-05    letab   = -1.165116e-11   wetab   = 1.090467e-10    
 +petab   = -1.26167e-16    dsub    = 0               pclm    = 0.1835384       
 +lpclm   = 3.285741e-07    wpclm   = -3.996779e-07   ppclm   = 7.977571e-12    
 +pdiblc1 = 1e-05           pdiblc2 = 0.0001413927    lpdiblc2= 2.353788e-09    
 +wpdiblc2= -5.212645e-09   ppdiblc2= 1.331389e-14    pdiblcb = 0.1387533       
 +wpdiblcb= -7.049708e-12   ppdiblcb= 8.156512e-18    drout   = 0               
 +pscbe1  = 4.16586e+08     lpscbe1 = 95.76174        wpscbe1 = 1018.363        
 +ppscbe1 = -0.002893393    pscbe2  = 4.54933e-05     lpscbe2 = -3.308092e-11   
 +wpscbe2 = 1.977595e-09    ppscbe2 = -2.578818e-15   pvag    = 0               
 +delta   = 0.01            alpha0  = 2.5e-06         beta0   = 20.7            
 +kt1     = -0.2964827      lkt1    = -3.814854e-09   wkt1    = 5.58119e-07     
 +pkt1    = -4.652679e-13   kt2     = -0.02842824     lkt2    = 8.383796e-09    
 +wkt2    = -2.3451e-07     pkt2    = 3.219478e-13    at      = 58413.87        
 +lat     = -0.05857738     wat     = -1.129092       pat     = 6.618029e-07    
 +ute     = -1.535532       lute    = -2.949172e-07   wute    = -1.015238e-05   
 +pute    = -2.039471e-12   ua1     = 2.097278e-09    lua1    = -2.304323e-15   
 +wua1    = -3.822868e-14   pua1    = 1.742218e-20    ub1     = -3.46834e-18    
 +lub1    = 3.99078e-24     wub1    = 2.604641e-23    pub1    = -5.117401e-29   
 +uc1     = -6.400205e-11   luc1    = 1.303836e-17    wuc1    = 1.13159e-16     
 +puc1    = 8.023928e-22    kt1l    = 0               prt     = -0.7466621      
 +lprt    = -6.926093e-06   wprt    = -1.615575e-06   pprt    = -6.542008e-11 
 +cj      = cjn            cjsw     = cjswn          cjswg    = cjswgn 
 +mj      = 0.3297355      mjsw     = 0.1303453      mjswg    = 0.1303453
 +pb      = 0.6944804      pbsw     = 0.6944804      pbswg    = 0.6944804
 +cta     = 9.42521e-4     ctp      = 4.91382e-04    pta      = 1.485657e-03
 +ptp     = 1.485657e-03   cgdo     = cgon           cgso     = cgon
 +xti     = 3              n        = 1              capmod   = 0
 +nqsmod  = 0              xpart    = 1              cf       = 0 
 +calcacm = 1              sfvtflag = 0              vfbflag  = 1       
 +js      = 6.27496e-05    jsw      = 5.79847e-10          )  
 *
 *
 .model nch.11            nmos   (                    lmin    = '8.07e-07-dxl'  
 +lmax    = '1.207e-06-dxl' wmin    = '1.9983e-5-dxw' wmax    = 0.0002001       
 +level   = 49              tnom    = 25              version = 3.1             
 +acm     = 12              ldif    = 1.2e-07         hdif    = hdifn           
 +rsh     = 82.2            rd      = 0               rs      = 0               
 +tox     = toxn            xj      = 1e-07           nch     = 2.3579e+17      
 +lln     = 1               lwn     = 1               wln     = 1               
 +wwn     = 1               lint    = 4e-08           ll      = 0               
 +lw      = 0               lwl     = 0               wint    = 4e-08           
 +wl      = 0               ww      = 0               wwl     = 0               
 +mobmod  = 1               binunit = 2               xl      = '3e-08+dxl'     
 +xw      = '1.5e-07+dxw'   dwg     = 0               dwb     = 0               
 +vth0    = 'dvtn+0.552335' lvth0   = 1.105919e-08    wvth0   = -1.638662e-07   
 +pvth0   = 2.874375e-13    k1      = 0.5140873       lk1     = -2.9124e-08     
 +wk1     = -4.094213e-07   pk1     = 9.38091e-13     k2      = 0.03640923      
 +lk2     = -8.183232e-09   wk2     = -2.058394e-07   pk2     = 6.432856e-14    
 +k3      = 0               dvt0    = 0               dvt1    = 0               
 +dvt2    = 0               dvt0w   = 0               dvt1w   = 0               
 +dvt2w   = 0               nlx     = 0               w0      = 0               
 +k3b     = 0               vsat    = 93284.7         lvsat   = 0.002439456     
 +wvsat   = 0.6445567       pvsat   = -4.879294e-07   ua      = 0               
 +ub      = 2.107241e-18    lub     = -4.659615e-25   wub     = 3.129772e-23    
 +pub     = -1.756058e-29   uc      = 1.015095e-10    luc     = -6.65921e-17    
 +wuc     = 4.098089e-16    puc     = 3.627434e-22    rdsw    = 750             
 +prwb    = 0               prwg    = 0               wr      = 1               
 +u0      = 0.04695012      lu0     = -1.967186e-09   wu0     = 1.962427e-07    
 +pu0     = -1.080658e-13   a0      = 1.123475        la0     = -1.418531e-07   
 +wa0     = 6.342665e-06    pa0     = -7.540081e-12   keta    = 0.0194797       
 +lketa   = -1.778386e-08   wketa   = 9.20202e-08     pketa   = 8.370197e-14    
 +a1      = 0               a2      = 0.99            ags     = 0.2366145       
 +lags    = -9.498365e-08   wags    = 7.387834e-06    pags    = -7.279468e-12   
 +b0      = 0               b1      = 0               voff    = -0.0912467      
 +lvoff   = -8.83858e-09    wvoff   = -1.750833e-06   pvoff   = 1.767891e-12    
 +nfactor = 1.222168        lnfactor= -5.706807e-08   wnfactor= -2.411932e-05   
 +pnfactor= 1.921913e-11    cit     = -0.0004653787   lcit    = 2.443328e-10    
 +wcit    = 1.884997e-08    pcit    = -1.208655e-14   cdsc    = 0               
 +cdscb   = 0               cdscd   = 0               eta0    = 0.001006312     
 +leta0   = -1.492144e-10   weta0   = -1.672834e-08   peta0   = 1.395657e-14    
 +etab    = 0.0004206679    letab   = -4.867127e-10   wetab   = -8.434391e-09   
 +petab   = 9.758589e-15    dsub    = 0               pclm    = 1.103169        
 +lpclm   = -7.354388e-07   wpclm   = -7.084521e-06   ppclm   = 1.571193e-11    
 +pdiblc1 = 1e-05           pdiblc2 = -0.0006830479   lpdiblc2= 3.307666e-09    
 +wpdiblc2= -8.79269e-09    ppdiblc2= 1.7456e-14      pdiblcb = 0.1651368       
 +lpdiblcb= -3.052564e-08   wpdiblcb= -5.277212e-06   ppdiblcb= 6.105734e-12    
 +drout   = 0               pscbe1  = 5.782154e+08    lpscbe1 = -91.24341       
 +wpscbe1 = -2414.635       ppscbe1 = 0.001078585     pscbe2  = 2.779844e-05    
 +lpscbe2 = -1.260797e-11   wpscbe2 = -4.836938e-10   ppscbe2 = 2.688923e-16    
 +pvag    = 0               delta   = 0.01            alpha0  = 2.5e-06  
 +beta0   = 20.7            kt1     = -0.356801       lkt1    = 6.597352e-08    
 +wkt1    = 2.854991e-06    pkt1    = -3.122749e-12   kt2     = -0.01945076     
 +lkt2    = -2.003143e-09   wkt2    = 1.835831e-07    pkt2    = -1.61786e-13    
 +at      = 1906.944        lat     = 0.006801126     wat     = -1.274016       
 +pat     = 8.294801e-07    ute     = -1.979571       lute    = 2.188354e-07    
 +wute    = -4.127272e-06   pute    = -9.010521e-12   ua1     = -2.167498e-10   
 +lua1    = 3.730067e-16    wua1    = 1.302156e-14    pua1    = -4.187434e-20   
 +ub1     = -1.302893e-18   lub1    = 1.485358e-24    wub1    = -4.567962e-23   
 +pub1    = 3.1813e-29      uc1     = -3.468722e-10   luc1    = 3.403191e-16    
 +wuc1    = 6.229855e-15    puc1    = -6.274624e-21   kt1l    = 0               
 +prt     = -10.67252       lprt    = 4.558123e-06    wprt    = -0.0002110901   
 +pprt    = 1.769419e-10   
 +cj      = cjn            cjsw     = cjswn          cjswg    = cjswgn 
 +mj      = 0.3297355      mjsw     = 0.1303453      mjswg    = 0.1303453
 +pb      = 0.6944804      pbsw     = 0.6944804      pbswg    = 0.6944804
 +cta     = 9.42521e-4     ctp      = 4.91382e-04    pta      = 1.485657e-03
 +ptp     = 1.485657e-03   cgdo     = cgon           cgso     = cgon
 +xti     = 3              n        = 1              capmod   = 0
 +nqsmod  = 0              xpart    = 1              cf       = 0 
 +calcacm = 1              sfvtflag = 0              vfbflag  = 1       
 +js      = 6.27496e-05    jsw      = 5.79847e-10          )
 *
 *
 .model nch.12            nmos   (                    lmin    = 3.5e-07         
 +lmax    = '8.07e-07-dxl'  wmin    = '1.9983e-5-dxw' wmax    = 0.0002001       
 +level   = 49              tnom    = 25              version = 3.1             
 +acm     = 12              ldif    = 1.2e-07         hdif    = hdifn           
 +rsh     = 82.2            rd      = 0               rs      = 0               
 +tox     = toxn            xj      = 1e-07           nch     = 2.3579e+17      
 +lln     = 1               lwn     = 1               wln     = 1               
 +wwn     = 1               lint    = 4e-08           ll      = 0               
 +lw      = 0               lwl     = 0               wint    = 4e-08           
 +wl      = 0               ww      = 0               wwl     = 0               
 +mobmod  = 1               binunit = 2               xl      = '3e-08+dxl'     
 +xw      = '1.5e-07+dxw'   dwg     = 0               dwb     = 0               
 +vth0    = 'dvtn+0.558288' lvth0   = 6.552551e-09    wvth0   = 4.333969e-07    
 +pvth0   = -1.646906e-13   k1      = 0.4243538       lk1     = 3.880428e-08    
 +wk1     = 1.293692e-06    pk1     = -3.511657e-13   k2      = 0.05531685      
 +lk2     = -2.24963e-08    wk2     = -2.018737e-07   pk2     = 6.132655e-14    
 +k3      = 0               dvt0    = 0               dvt1    = 0               
 +dvt2    = 0               dvt0w   = 0               dvt1w   = 0               
 +dvt2w   = 0               nlx     = 0               w0      = 0               
 +k3b     = 0               vsat    = 96507.23        ua      = 5.780811e-10    
 +lua     = -4.376074e-16   wua     = -1.159052e-14   pua     = 8.774028e-21    
 +ub      = 9.327076e-19    lub     = 4.231599e-25    wub     = 2.290615e-23    
 +pub     = -1.120815e-29   uc      = -4.252817e-11   luc     = 4.244447e-17    
 +wuc     = 2.133049e-15    puc     = -9.417496e-22   rdsw    = 750             
 +prwb    = 0               prwg    = 0               wr      = 1               
 +u0      = 0.0493599       lu0     = -3.791383e-09   wu0     = -3.008583e-08   
 +pu0     = 6.326492e-14    a0      = 1.108632        la0     = -1.306164e-07   
 +wa0     = -7.754034e-06   pa0     = 3.131122e-12    keta    = -0.002019476    
 +lketa   = -1.508986e-09   wketa   = 2.200248e-07    pketa   = -1.319746e-14   
 +a1      = 0               a2      = 0.99            ags     = 0.1805967       
 +lags    = -5.257816e-08   wags    = 5.250056e-07    pags    = -2.084307e-12   
 +b0      = 0               b1      = 0               voff    = -0.1028186      
 +lvoff   = -7.862375e-11   wvoff   = 5.637835e-07    pvoff   = 1.572632e-14    
 +nfactor = 1.279284        lnfactor= -1.003055e-07   wnfactor= 1.409367e-06    
 +pnfactor= -1.060879e-13   cit     = -0.0003548934   lcit    = 1.606955e-10    
 +wcit    = 5.594149e-09    pcit    = -2.051892e-15   cdsc    = 0               
 +cdscb   = 0               cdscd   = 0               eta0    = -0.0004200171   
 +leta0   = 9.305167e-10    weta0   = 1.575515e-10    peta0   = 1.173948e-15    
 +etab    = 0.0006617482    letab   = -6.692105e-10   wetab   = 1.417605e-08    
 +petab   = -7.357516e-15   dsub    = 0               pclm    = -0.09697377     
 +lpclm   = 1.730695e-07    wpclm   = 1.778578e-05    ppclm   = -3.114881e-12   
 +pdiblc1 = 1e-05           pdiblc2 = -0.0001322146   lpdiblc2= 2.890686e-09    
 +wpdiblc2= 5.926362e-09    ppdiblc2= 6.313672e-15    pdiblcb = 0.09958895      
 +lpdiblcb= 1.909405e-08    wpdiblcb= 5.088415e-06    ppdiblcb= -1.741046e-12   
 +drout   = 0               pscbe1  = 4.648172e+08    lpscbe1 = -5.401008       
 +wpscbe1 = -2351.523       ppscbe1 = 0.001030809     pscbe2  = 1.387722e-05    
 +lpscbe2 = -2.069607e-12   wpscbe2 = -2.022001e-10   ppscbe2 = 5.580156e-17    
 +pvag    = 0               delta   = 0.01            alpha0  = 2.5e-06 
 +beta0   = 20.7            kt1     = -0.1420202      lkt1    = -9.661557e-08   
 +wkt1    = -4.90975e-06    pkt1    = 2.755161e-12    kt2     = -0.01610689     
 +lkt2    = -4.534451e-09   wkt2    = -2.62401e-07    pkt2    = 1.75824e-13     
 +at      = 4458.583        lat     = 0.004869536     wat     = -0.131913       
 +pat     = -3.509204e-08   ute     = -1.801945       lute    = 8.437233e-08    
 +wute    = -1.71153e-05    pute    = 8.21413e-13     ua1     = -6.043561e-10   
 +lua1    = 6.664246e-16    wua1    = -3.377768e-14   pua1    = -6.447314e-21   
 +ub1     = 1.551122e-18    lub1    = -6.751311e-25   wub1    = -1.52417e-23    
 +pub1    = 8.77149e-30     uc1     = 2.179031e-10    luc1    = -8.721581e-17   
 +wuc1    = -4.28415e-15    puc1    = 1.684478e-21    kt1l    = 0               
 +prt     = 4.542504        lprt    = -6.95965e-06    wprt    = -7.738082e-05   
 +pprt    = 7.5724e-11
 +cj      = cjn            cjsw     = cjswn          cjswg    = cjswgn 
 +mj      = 0.3297355      mjsw     = 0.1303453      mjswg    = 0.1303453
 +pb      = 0.6944804      pbsw     = 0.6944804      pbswg    = 0.6944804
 +cta     = 9.42521e-4     ctp      = 4.91382e-04    pta      = 1.485657e-03
 +ptp     = 1.485657e-03   cgdo     = cgon           cgso     = cgon
 +xti     = 3              n        = 1              capmod   = 0
 +nqsmod  = 0              xpart    = 1              cf       = 0 
 +calcacm = 1              sfvtflag = 0              vfbflag  = 1       
 +js      = 6.27496e-05    jsw      = 5.79847e-10          )
 *
 ***************************************************************
 *                                                             *
 *               3.3v pmos devices model                       *
 *                                                             *
 ***************************************************************
 *
 .model pch.1            pmos   (                    lmin     = '1.2228e-06-dxl'
 +lmax    = 2.01e-05       wmin     = '1.1823e-06-dxw' wmax   = '19.9823e-06-dxw'
 +level   = 49             tnom     = 25             version  = 3.1            
 +tlev    = 1              tlevc    = 1              acm      = 12             
 +ldif    = 1.2e-07        hdif     = hdifp          rsh      = 153            
 +rd      = 0              rs       = 0              tox      = toxp        
 +xj      = 1e-07          nch      = 8.52e+16       lln      = 1              
 +lwn     = 1              wln      = 1              wwn      = 1              
 +lint    = 5e-08          ll       = 0              lw       = 0              
 +lwl     = 0              wint     = 5e-08          wl       = 0              
 +ww      = 0              wwl      = 0              mobmod   = 1              
 +binunit = 2              xl       = '3e-08+dxl'    xw       = '1.5e-07+dxw'   
 +dwg     = 0              dwb      = 0              vth0     = 'dvtp-0.7355598'
 +lvth0   = -2.602729e-08  wvth0    = -6.917693e-08  pvth0    = 4.363606e-14   
 +k1      = 0.4301047      lk1      = -4.284528e-08  wk1      = -6.316756e-08  
 +pk1     = 5.673784e-14   k2       = -0.0003689397  lk2      = -5.71726e-09   
 +wk2     = 1.353252e-08   pk2      = -8.016593e-15  k3       = 0              
 +dvt0    = 0              dvt1     = 0              dvt2     = 0              
 +dvt0w   = 0              dvt1w    = 0              dvt2w    = 0              
 +nlx     = 0              w0       = 0              k3b      = 0              
 +vsat    = 250000         ua       = 1.0078e-09     lua      = -4.527726e-16  
 +wua     = 8.184941e-17   pua      = -3.757546e-23  ub       = 1.534481e-18   
 +lub     = 2.820746e-25   wub      = -1.068201e-24  pub      = 3.569499e-31   
 +uc      = 4.555716e-12   luc      = -1.513726e-18  wuc      = -9.126132e-17  
 +puc     = 3.032344e-23   rdsw     = 900            prwb     = 0              
 +prwg    = 0              wr       = 1              u0       = 0.0196312      
 +lu0     = -4.857933e-09  wu0      = -4.780753e-09  pu0      = 3.105424e-16   
 +a0      = 0.4467904      la0      = -2.616579e-07  wa0      = 3.821818e-07   
 +pa0     = -7.26674e-14   keta     = -0.005948482   lketa    = -1.733205e-08  
 +wketa   = 1.878229e-08   pketa    = 1.053462e-15   a1       = 0              
 +a2      = 0.4            ags      = 0.01930433     lags     = 8.019689e-10   
 +wags    = 1.393591e-08   pags     = -1.606531e-14  b0       = 0              
 +b1      = 0              voff     = -0.1991839     lvoff    = 2.295196e-08   
 +wvoff   = -4.09161e-08   pvoff    = 3.040523e-14   nfactor  = 3.110217       
 +lnfactor= -2.124369e-06  wnfactor = -6.45487e-07   pnfactor = 1.496336e-12   
 +cit     = -0.0009357498  lcit     = 1.367298e-09   wcit     = 7.730287e-10   
 +pcit    = -1.122406e-15  cdsc     = 0              cdscb    = -9.316545e-06  
 +lcdscb  = 1.335765e-10   wcdscb   = 6.37953e-11    pcdscb   = -2.249144e-16  
 +cdscd   = 0              eta0     = 8.045419e-05   leta0    = 2.024863e-09   
 +weta0   = 1.722021e-11   peta0    = 1.87748e-15    etab     = -1.001222e-05  
 +letab   = 1.343784e-10   wetab    = 7.773121e-11   petab    = -2.409797e-16  
 +dsub    = 0              pclm     = 2.432071       lpclm    = -1.352396e-07  
 +wpclm   = 1.629385e-06   ppclm    = -2.650532e-12  pdiblc1  = 1e-05          
 +pdiblc2 = 0.0001         pdiblcb  = 0.2976793      lpdiblcb = -3.29082e-07   
 +wpdiblcb= -3.773149e-07  ppdiblcb = 6.147268e-13   drout    = 0              
 +pscbe1  = 6.241878e+08   pscbe2   = 1e-20          pvag     = 0              
 +delta   = 0.01           alpha0   = 8e-09          beta0    = 18             
 +kt1     = -0.5176825     lkt1     = -7.966352e-09  wkt1     = 1.360315e-08   
 +pkt1    = 1.053899e-15   kt2      = -0.03958106    lkt2     = -2.860989e-09  
 +wkt2    = -2.070945e-08  pkt2     = 2.532487e-14   at       = -50000         
 +ute     = -1.742463      lute     = -5.778249e-07  wute     = 2.131611e-07   
 +pute    = 5.872746e-13   ua1      = -3.20746e-10   lua1     = -2.415259e-15  
 +wua1    = 5.988957e-17   pua1     = 2.375843e-21   ub1      = -2.244901e-18  
 +lub1    = 2.395018e-24   wub1     = 8.788389e-25   pub1     = -2.61793e-30   
 +uc1     = -9.696401e-11  luc1     = 6.653525e-17   wuc1     = 7.734976e-17   
 +puc1    = -9.268197e-23  kt1l     = 0              prt      = 0              
 +js      = 0.0001         jsw      = 8.5e-12      
 +cj      = cjp            cjsw     = cjswp          cjswg    = cjswgp 
 +mj      = 0.6008857      mjsw     = 0.4471985      mjswg    = 0.4471985
 +pb      = 1.0864354      pbsw     = 1.0864354      pbswg    = 1.0864354
 +cta     = 9.168207e-4    ctp      = 1.441221e-3    pta      = 1.249266e-3
 +ptp     = 1.249266e-3    cgdo     = cgop           cgso     = cgop
 +xti     = 3              n        = 1              capmod   = 0
 +nqsmod  = 0              xpart    = 1              cf       = 0 
 +calcacm = 1              sfvtflag = 0              vfbflag  = 1      )
 *
 *
 .model pch.2            pmos   (                    lmin     = '8.228e-07-dxl'
 +lmax    = '1.2228e-06-dxl' wmin   = '1.1823e-06-dxw' wmax   = '19.9823e-06-dxw'
 +level   = 49             tnom     = 25             version  = 3.1            
 +tlev    = 1              tlevc    = 1              acm      = 12             
 +ldif    = 1.2e-07        hdif     = hdifp          rsh      = 153            
 +rd      = 0              rs       = 0              tox      = toxp        
 +xj      = 1e-07          nch      = 8.52e+16       lln      = 1              
 +lwn     = 1              wln      = 1              wwn      = 1              
 +lint    = 5e-08          ll       = 0              lw       = 0              
 +lwl     = 0              wint     = 5e-08          wl       = 0              
 +ww      = 0              wwl      = 0              mobmod   = 1              
 +binunit = 2              xl       = '3e-08+dxl'    xw       = '1.5e-07+dxw'   
 +dwg     = 0              dwb      = 0              vth0     = 'dvtp-0.766296'
 +lvth0   = 9.405285e-09   wvth0    = -2.838143e-08  pvth0    = -3.392986e-15  
 +k1      = 0.4032516      lk1      = -1.188909e-08  wk1      = -6.26186e-08   
 +pk1     = 5.6105e-14     k2       = -0.01627576    lk2      = 1.262012e-08   
 +wk2     = 3.699832e-08   pk2      = -3.506796e-14  k3       = 0              
 +dvt0    = 0              dvt1     = 0              dvt2     = 0              
 +dvt0w   = 0              dvt1w    = 0              dvt2w    = 0              
 +nlx     = 0              w0       = 0              k3b      = 0              
 +vsat    = 250000         ua       = 8.502457e-10   lua      = -2.711436e-16  
 +wua     = 2.974891e-16   pua      = -2.861649e-22  ub       = 7.956685e-19   
 +lub     = 1.133777e-24   wub      = -6.748139e-25  pub      = -9.654638e-32  
 +uc      = 4.457796e-12   luc      = -1.40085e-18   wuc      = -8.929978e-17  
 +puc     = 2.806218e-23   rdsw     = 900            prwb     = 0              
 +prwg    = 0              wr       = 1              u0       = 0.01819144     
 +lu0     = -3.198179e-09  wu0      = -5.180247e-09  pu0      = 7.710789e-16   
 +a0      = 0.04032973     la0      = 2.069099e-07   wa0      = 8.760829e-07   
 +pa0     = -6.420366e-13  keta     = -0.02118766    lketa    = 2.356817e-10   
 +wketa   = 2.379156e-08   pketa    = -4.721232e-15  a1       = 0              
 +a2      = 0.4            ags      = 0.02           b0       = 0              
 +b1      = 0              voff     = -0.2186518     lvoff    = 4.53946e-08    
 +wvoff   = 2.026846e-08   pvoff    = -4.012832e-14  nfactor  = -0.2299324     
 +lnfactor= 1.726156e-06   wnfactor = 1.601439e-06   pnfactor = -1.09392e-12   
 +cit     = 0.001390931    lcit     = -1.314899e-09  wcit     = -8.138641e-10  
 +pcit    = 7.069634e-16   cdsc     = 0              cdscb    = 0.0002907382   
 +lcdscb  = -2.123266e-10  wcdscb   = -4.278522e-10  pcdscb   = 3.418568e-16   
 +cdscd   = 0              eta0     = 0.0001606131   leta0    = 1.932455e-09   
 +weta0   = 8.750046e-09   peta0    = -8.18972e-15   etab     = 9.491315e-05   
 +letab   = 1.342048e-11   wetab    = 1.019006e-10   petab    = -2.688422e-16  
 +dsub    = 0              pclm     = 2.968812       lpclm    = -7.539939e-07  
 +wpclm   = -3.166047e-06  ppclm    = 2.877641e-12   pdiblc1  = 1e-05          
 +pdiblc2 = 0.0001         pdiblcb  = -0.002433605   lpdiblcb = 1.688803e-08   
 +wpdiblcb= 4.493959e-07   ppdiblcb = -3.383052e-13  drout    = 0              
 +pscbe1  = 6.241878e+08   pscbe2   = 1e-20          pvag     = 0              
 +delta   = 0.01           alpha0   = 8e-09          beta0    = 18             
 +kt1     = -0.4758361     lkt1     = -5.62068e-08   wkt1     = -2.242433e-08  
 +pkt1    = 4.258637e-14   kt2      = -0.04881256    lkt2     = 7.781083e-09   
 +wkt2    = 1.664485e-08   pkt2     = -1.773716e-14  at       = -50000         
 +ute     = -2.643144      lute     = 4.604808e-07   wute     = 1.144958e-06   
 +pute    = -4.869005e-13  ua1      = -2.449491e-09  lua1     = 3.875782e-17   
 +wua1    = 2.794319e-15   pua1     = -7.764063e-22  ub1      = -3.7071e-19    
 +lub1    = 2.344503e-25   wub1     = -1.994584e-24  pub1     = 6.945517e-31   
 +uc1     = -4.638075e-11  luc1     = 8.222869e-18   wuc1     = -1.142079e-16  
 +puc1    = 1.281457e-22   kt1l     = 0              prt      = 0              
 +js      = 0.0001         jsw      = 8.5e-12     
 +cj      = cjp            cjsw     = cjswp          cjswg    = cjswgp 
 +mj      = 0.6008857      mjsw     = 0.4471985      mjswg    = 0.4471985
 +pb      = 1.0864354      pbsw     = 1.0864354      pbswg    = 1.0864354
 +cta     = 9.168207e-4    ctp      = 1.441221e-3    pta      = 1.249266e-3
 +ptp     = 1.249266e-3    cgdo     = cgop           cgso     = cgop
 +xti     = 3              n        = 1              capmod   = 0
 +nqsmod  = 0              xpart    = 1              cf       = 0 
 +calcacm = 1              sfvtflag = 0              vfbflag  = 1         )
 *
 *
 .model pch.3            pmos   (                    lmin     = 3.5e-07      
 +lmax    = '8.228e-07-dxl' wmin    = '1.1823e-06-dxw' wmax   = '19.9823e-06-dxw'
 +level   = 49             tnom     = 25             version  = 3.1            
 +tlev    = 1              tlevc    = 1              acm      = 12             
 +ldif    = 1.2e-07        hdif     = hdifp          rsh      = 153            
 +rd      = 0              rs       = 0              tox      = toxp        
 +xj      = 1e-07          nch      = 8.52e+16       lln      = 1              
 +lwn     = 1              wln      = 1              wwn      = 1              
 +lint    = 5e-08          ll       = 0              lw       = 0              
 +lwl     = 0              wint     = 5e-08          wl       = 0              
 +ww      = 0              wwl      = 0              mobmod   = 1              
 +binunit = 2              xl       = '3e-08+dxl'    xw       = '1.5e-07+dxw'   
 +dwg     = 0              dwb      = 0              vth0     = 'dvtp-0.7757999'
 +lvth0   = 1.655988e-08   wvth0    = -1.74211e-08   pvth0    = -1.164392e-14  
 +k1      = 0.3485778      lk1      = 2.926939e-08   wk1      = 6.819686e-08   
 +pk1     = -4.237287e-14  k2       = 0.0150499      lk2      = -1.096183e-08  
 +wk2     = -2.311111e-08  pk2      = 1.018241e-14   k3       = 0              
 +dvt0    = 0              dvt1     = 0              dvt2     = 0              
 +dvt0w   = 0              dvt1w    = 0              dvt2w    = 0              
 +nlx     = 0              w0       = 0              k3b      = 0              
 +vsat    = 234649.4       lvsat    = 0.01155597     wvsat    = 0.00233258     
 +pvsat   = -1.755967e-09  ua       = 4.846211e-10   lua      = 4.09865e-18    
 +wua     = -1.273793e-16  pua      = 3.3676e-23     ub       = 2.236267e-18   
 +lub     = 4.929461e-26   wub      = -1.019081e-24  pub      = 1.626178e-31   
 +uc      = 3.662316e-12   luc      = -8.020134e-19  wuc      = -5.654456e-17  
 +puc     = 3.404061e-24   rdsw     = 900            prwb     = 0              
[...]
        pketa=3.25251e-014               pvoff=1.90659e-012         
        pvth0=-1.84003e-013                 pk1=-9.98997e-013         
          pk2=-3.26312e-014               peta0=-1.43685e-014         
        petab=1.08948e-015                 pu0=3.46582e-014         
          pua=1.19298e-020                 pub=-2.68421e-029         
          puc=-1.15568e-021               ppclm=7.57547e-011         
     ppdiblcb=-6.64279e-012            pnfactor=-6.09443e-011         
       pcdscb=8.0349e-015                pcit=3.51948e-014         
         pkt1=1.2447e-012                pkt2=-4.93128e-013         
         pute=-2.22765e-012                pua1=-2.08537e-020         
         pub1=5.89058e-029                puc1=2.12721e-021         
          pat=-8.38898e-006         
 ***************************************************************************
 ***        model parameters  model name:   0:nch.10   model type:nmos   ***
 ***************************************************************************

   *** general parameters ***
    deriv=   0.           

   ***  level 49  model parameters  ***

       hspver=    2006.03               level=         49         
      version=        3.1            paramchk=          0         
       apwarn=          1                lite=          0         
       vgslim=          0             binUnit=          2         
       capMod=          0               xpart=          1         
       mobMod=          1              nqsMod=          0         
       stiMod=          0                 elm=          5         
     sfvtflag=          0                 tox=   7.5e-009 meter   
           xj=     1e-007 meter       binflag=          0         
         lmin= 1.207e-006 meter          lmax=  2.01e-005 meter   
         wmin=1.9983e-005 meter          wmax=  0.0002001 meter   
         lref=          0 meter          wref=          0 meter   
         lint=     4e-008 meter          wint=     4e-008 meter   
        lmult=          1               wmult=          1         
           ll=          0                 lln=          1         
           lw=          0                 lwn=          1         
          lwl=          0                  wl=          0         
          wln=          1                  ww=          0         
          wwn=          1                 wwl=          0         
          dwg=          0 m/V             dwb=          0 m/V^1/2 
           a0=   0.514977                 ags=-0.000266396 V^-1    
           b0=          0 meter            b1=          0 meter   
         keta= 0.00281633 V^-1           voff=  -0.118934 V       
        ngate=          0 cm^-3           vbx=          0 V       
          vbm=         -3 V                xt=  1.55e-007 meter   
         vth0=   0.623596 V               nch=2.3579e+017 cm^-3   
         nsub=     6e+016 cm^-3           nlx=          0 meter   
       gamma1=          0 V^-1/2       gamma2=          0 V^-1/2  
           k1=   0.503535 V^1/2            k2=  0.0263995         
           k3=          0                 k3b=          0 V^-1    
           w0=          0 meter          dvt0=          0         
         dvt1=          0                dvt2=          0 V^-1    
        dvt0w=          0 meter^-1      dvt1w=          0 meter^-1
        dvt2w=          0 V^-1           dsub=          0         
         eta0=7.25065e-005                etab=1.00702e-005 V^-1    
           u0=  0.0392113 m^2/V/sec         ua=-7.24325e-010 m/V     
           ub=2.50768e-018 (m/V)^2          uc=4.6532e-011 V^-1    
         vsat=    96575.8 m/sec            a1=          0 v^-1    
           a2=       0.99               delta=       0.01 V       
         rdsw=        750 ohm-um         prwg=          0 V^-1    
         prwb=          0 V^-1/2           wr=          1         
         pclm=   0.183538             pdiblc1=     1e-005         
      pdiblc2=0.000141393             pdiblcb=   0.138753 V^-1    
       pscbe1=4.16586e+008 V/m          pscbe2=4.54933e-005 V/m     
        drout=          0                pvag=          0         
      nfactor=    1.08992                cdsc=          0 f/m^2   
        cdscb=          0 f/V/m^2       cdscd=          0 f/V/m^2 
          cit=-0.000108198 f/m^2        alpha0=   2.5e-006 m/V     
        beta0=       20.7 V               dlc=     4e-008 meter   
          dwc=     4e-008 meter           clc=     1e-007 meter   
          cle=        0.6                cgso= 2.063e-010 f/m     
         cgdo= 2.063e-010 f/m            cgbo=3.68334e-010 f/m     
         cgsl=          0 f/m            cgdl=          0 f/m     
       ckappa=        0.6                  cf=          0 f/m     
      vfbflag=          1               vfbcv=           Vfb      
         tnom=     298.15 K               kt1=  -0.296483 V       
         kt1l=          0                 kt2= -0.0284282         
          ute=   -1.53553                 ua1=2.09728e-009 m/V     
          ub1=-3.46834e-018 (m/V)^2         uc1=-6.4002e-011 m/V^2   
           at=    58413.9 m/s             prt=  -0.746662         
          using Berkeley noise model       noiMod=          1         
         noia=     1e+020                noib=      50000         
         noic=  -1.4e-012                  em=   4.1e+007         
           ef=          1                  af=          1         
           kf=          0              gdsnoi=-1.23457e-029         
          using Berkeley diodes          using ACM 
          acm=        12                 hdif= 3.65e-007 meter    
         ldif=  1.2e-007 meter             js=6.27496e-005 amp/m^2  
          jsw=5.79847e-010 amp/m            xti=         3          
           nj=         1                   cj=0.00104605 f/m^2    
           mj=  0.329735                   pb=   0.69448 V        
         cjsw=3.12938e-010 f/m             mjsw=  0.130345          
          php (not used)                  pbsw=   0.69448 V        
       cjgate (not used)                 cjswg=1.99817e-010 f/m      
        mjswg=  0.130345                pbswg=   0.69448 V        
          la0=5.62179e-007                lags=1.79088e-007         
        lketa=1.49566e-009               lvoff=2.31956e-008         
        lvth0=4.43097e-008                 lk1=-1.69152e-008         
          lk2= 3.398e-009               leta0=9.31198e-010         
        letab=-1.16512e-011                 lu0=6.98659e-009         
          lua=8.38043e-016                 lub=-9.29273e-025         
          luc=-2.98307e-018               lvsat=-0.00136833         
        lpclm=3.28574e-007            lpdiblc2=2.35379e-009         
      lpscbe1=    95.7617             lpscbe2=-3.30809e-011         
     lnfactor=9.5944e-008                lcit=-1.68925e-010         
         lkt1=-3.81485e-009                lkt2=8.3838e-009         
         lute=-2.94917e-007                lua1=-2.30432e-015         
         lub1=3.99078e-024                luc1=1.30384e-017         
          lat= -0.0585774                lprt=-6.92609e-006         
          wa0=3.96571e-007                wags=2.11826e-006         
        wketa=-1.99353e-007               wvoff=-4.59386e-007         
        wvth0=2.27915e-007                 wk1=3.73263e-007         
          wk2=1.98066e-008               weta0=2.69982e-009         
        wetab=1.09047e-010                 wu0=1.31908e-007         
          wua=1.45227e-014                 wub=-9.21435e-024         
          wuc=3.75578e-016               wvsat= -0.0137118         
        wpclm=-3.99678e-007            wpdiblc2=-5.21265e-009         
     wpdiblcb=-7.04971e-012             wpscbe1=    1018.36         
      wpscbe2=1.97759e-009            wnfactor=-6.84915e-007         
         wcit=1.10583e-009                wkt1=5.58119e-007         
         wkt2=-2.3451e-007                wute=-1.01524e-005         
         wua1=-3.82287e-014                wub1=2.60464e-023         
         wuc1=1.13159e-016                 wat=   -1.12909         
         wprt=-1.61558e-006                 pa0=-6.60451e-013         
         pags=-1.18257e-012               pketa=4.20821e-013         
        pvoff=2.73687e-013               pvth0=-1.65853e-013         
          pk1=3.25257e-014                 pk2=-1.96744e-013         
        peta0=-8.52182e-015               petab=-1.26167e-016         
          pu0=-3.36307e-014                 pua=-1.68028e-020         
          pub=2.93119e-029                 puc=4.02348e-022         
        pvsat=2.73687e-007               ppclm=7.97757e-012         
     ppdiblc2=1.33139e-014            ppdiblcb=8.15651e-018         
      ppscbe1=-0.00289339             ppscbe2=-2.57882e-015         
     pnfactor=-7.89448e-012                pcit=8.44342e-015         
         pkt1=-4.65268e-013                pkt2=3.21948e-013         
         pute=-2.03947e-012                pua1=1.74222e-020         
         pub1=-5.1174e-029                puc1=8.02393e-022         
          pat=6.61803e-007                pprt=-6.54201e-011         
 
      
1****** HSPICE -- B-2008.09 32-BIT (Aug 26 2008) winnt ******                   
 ******  
 *ueno2009

  ******  operating point information tnom=  25.000 temp=  25.000 *****
 ***** operating point status is all       simulation time is     0.     
    node    =voltage      node    =voltage      node    =voltage

 +0:vdd     =   1.4000  0:vref    =   1.3988  0:wire1   = 609.0042m
 +0:wire10  = 727.0375m 0:wire11  =  27.3589m 0:wire12  =   1.2191 
 +0:wire13  = 511.6745m 0:wire14  =   1.3793  0:wire15  = 758.7558m
 +0:wire2   =  16.5138n 0:wire3   =   1.2427  0:wire4   =   1.0855 
 +0:wire5   = 605.6643m 0:wire6   =   1.3800  0:wire7   = 594.5206m
 +0:wire8   = 681.1529m 0:wire9   =   1.3460 


 ****  voltage sources

 subckt             
 element  0:vdd     
  volts      1.4000 
  current -130.7715u
  power    183.0801u

     total voltage source power dissipation=  183.0801u       watts




 **** mosfets


 subckt                                                                    
 element  0:m15      0:m16      0:m17      0:m18      0:m19      0:m10     
 model    0:pch.1    0:pch.1    0:pch.1    0:nch.1    0:nch.1    0:pch.10  
 region       Cutoff     Cutoff     Cutoff     Linear     Cutoff   Saturati
  id        -1.8564p   -1.8564p   -4.8607a    2.1712p    9.3392f   -7.8667u
  ibs      4.112e-25  4.112e-25  2.216e-25 -3.738e-24 -1.065e-24    1.5476a
  ibd      295.2602a  295.2602a  295.9100a -2.981e-21   -4.6439f    2.0959f
  vgs     -157.2630m -157.2630m  313.3266m    1.3988    16.5138n -794.3357m
  vds     -157.2630m -157.2630m   -1.0855    16.5138n  609.0042m -794.3357m
  vbs        0.         0.         0.         0.         0.         0.     
  vth     -661.7751m -661.7751m -659.0259m  638.9995m  638.3607m -644.5144m
  vdsat    -46.7163m  -46.7163m  -46.7152m  652.4934m   42.0465m -191.2805m
  vod      504.5121m  504.5121m  972.3525m  759.8012m -638.3607m -149.8213m
  beta      64.5176u   64.5176u   64.5692u  182.0934u  196.4527u  515.5483u
  gam eff  398.9256m  398.9256m  398.9256m  454.7898m  454.7898m  410.6368m
  gm        50.7135p   50.7134p  134.0050a    2.5500p  274.5614f   78.1372u
  gds      410.5609f  410.5606f  4.633e-19  131.8109u  538.1034a  347.5770n
  gmb       14.9226p   14.9226p   53.7074a  883.5398f   99.9679f   18.0361u
  cdtot      4.8629f    4.8629f    3.7434f   41.4501f    4.5049f   26.8424f
  cgtot     11.9999f   11.9999f   19.0149f   44.0510f   14.4711f  215.3327f
  cstot      5.1903f    5.1903f    5.1903f   43.7517f    5.1199f  269.7167f
  cbtot     19.8205f   19.8205f   25.7160f   21.4055f   21.5625f  119.5644f
  cgs      558.1500a  558.1500a  558.1500a   21.4822f  633.3410a  188.2604f
  cgd      558.1500a  558.1500a  558.1500a   21.4822f  633.3410a    4.2182f



 subckt                                                                    
 element  0:m11      0:m12      0:m13      0:m14      0:m20      0:m21     
 model    0:pch.10   0:nch.10   0:nch.10   0:nch.10   0:pch.10   0:pch.10  
 region     Saturati     Linear     Linear   Saturati     Linear     Linear
  id        -7.8656u    7.8667u    7.8656u   15.7323u  -29.5124u  -12.1258u
  ibs        1.5473a  -11.1711a  -11.1117a  -22.3393a    5.7765a    2.3736a
  ibd        2.0959f  -34.2937f -104.3325f  -97.4675f   15.8249f    9.7355f
  vgs     -794.3357m  785.5209m  751.4443m  681.1529m -790.9958m -790.9958m
  vds     -790.9958m   11.1437m   14.4836m  594.5206m  -54.0351m  -19.9585m
  vbs        0.         0.         0.         0.         0.         0.     
  vth     -644.5228m  640.7485m  630.1962m  640.0742m -642.5206m -642.6241m
  vdsat   -191.2735m  166.6625m  153.2786m   95.0546m -183.8811m -183.7967m
  vod     -149.8129m  144.7723m  121.2481m   41.0787m -148.4752m -148.3717m
  beta     515.5476u    5.2939m    4.8262m    5.3234m    4.5378m    4.5377m
  gam eff  410.6368m  452.5379m  453.5346m  452.5378m  376.1986m  376.1986m
  gm        78.1276u   52.3238u   59.8872u  265.9219u  212.1947u   80.2875u
  gds      348.2480n  680.6890u  514.8069u  572.8640n  449.3519u  571.6918u
  gmb       18.0338u   15.6754u   17.8395u   78.1168u   45.7834u   17.4781u
  cdtot     26.8646f  984.8714f    5.8093p  104.7759f    1.9852p    2.2774p
  cgtot    215.3327f    1.0737p    6.8882p  567.0184f    2.5424p    2.5865p
  cstot    269.7167f    1.0614p    6.3865p  629.7951f    2.4072p    2.4724p
  cbtot    119.5865f  496.8221f    2.4582p  450.6878f    1.0626p    1.0698p
  cgs      188.2604f  545.7900f    3.5373p  399.5981f    1.4657p    1.3480p
  cgd        4.2182f  513.8370f    3.2069p   16.5184f    1.0417p    1.2125p



 subckt                                                                    
 element  0:m22      0:m23      0:m24      0:m8       0:m9       0:m1      
 model    0:pch.10   0:pch.10   0:pch.10   0:nch.10   0:nch.10   0:nch.10  
 region     Saturati     Linear     Linear   Saturati     Cutoff   Saturati
  id       -60.1043u  -12.5273u -769.3687n   29.5124u   12.1258u   29.5124u
  ibs       11.7624a    2.4522a  1.506e-19  -41.6893a  -17.1298a  -41.7367a
  ibd       18.0101f    9.9596f  822.0189a -242.1277f -242.1277f -181.8526f
  vgs     -790.9958m -790.9958m -790.9958m  664.8120m  618.9274m  681.1529m
  vds     -180.9229m  -20.6626m   -1.1994m  664.8120m  653.0040m  681.1529m
  vbs        0.         0.         0.         0.         0.         0.     
  vth     -642.1330m -642.6219m -642.6809m  638.7034m  638.7164m  638.9715m
  vdsat   -184.2056m -183.7984m -183.7507m   86.4340m   66.3670m   95.3285m
  vod     -148.8628m -148.3739m -148.3148m   26.1086m  -19.7889m   42.1815m
  beta       4.5381m    4.5377m    4.5377m   13.1881m   13.2039m    9.9072m
  gam eff  376.1986m  376.1986m  376.1986m  449.0072m  449.0072m  449.7920m
  gm       598.0392u   83.0800u    4.8857u  532.1942u  249.9449u  500.7890u
  gds       72.4022u  569.1504u  639.5349u    1.1295u  545.2124n    1.0548u
  gmb      125.3060u   18.0828u    1.0687u  155.5801u   73.5131u  146.3498u
  cdtot    275.9380f    2.2726p    2.3928p  258.2074f  258.6676f  193.3347f
  cgtot      1.8521p    2.5861p    2.5914p    1.2006p  664.2697f    1.0699p
  cstot      2.3110p    2.4711p    2.5062p    1.2111p  297.2063f    1.1942p
  cbtot      1.0284p    1.0697p    1.0734p    1.0982p    1.0550p  839.0669f
  cgs        1.6387p    1.3504p    1.2870p  727.8392f   41.2744f  760.5358f
  cgd       36.6092f    1.2096p    1.2794p   41.2744f   41.2744f   30.9594f



 subckt                                                                    
 element  0:m2       0:m25      0:m3       0:m5       0:m4       0:m6      
 model    0:nch.10   0:nch.1    0:nch.10   0:nch.10   0:nch.1    0:nch.1   
 region     Saturati     Linear   Saturati     Cutoff     Linear   Saturati
  id        12.1258u   12.1258u   60.1043u   12.5273u   73.4010u   13.2966u
  ibs      -17.1890a  -18.2389a  -84.8961a  -17.6970a -111.6487a  -20.3124a
  ibd     -121.5775f   -8.5657f -242.1277f -242.1277f  -10.6714f  -10.6707f
  vgs      653.7940m    1.3988   707.4026m  620.5816m    1.2191   867.6629m
  vds      699.6786m   27.3589m  707.4026m  620.5816m  511.6745m  247.0813m
  vbs        0.         0.         0.         0.         0.         0.     
  vth      639.5222m  645.6945m  638.6553m  638.7540m  644.4973m  644.7243m
  vdsat     80.8472m  654.9147m  111.4878m   66.9419m  511.1562m  227.3648m
  vod       14.2718m  753.1062m   68.7473m  -18.1725m  574.5797m  222.9386m
  beta       6.6397m  633.8775u   13.1676m   13.2034m  516.8505u  538.1365u
  gam eff  451.3614m  467.4044m  449.0070m  449.0072m  466.0267m  466.0328m
  gm       225.6526u   14.5024u  918.8977u  257.2602u  217.0011u   98.5058u
  gds      479.0866n  434.7516u    1.9211u  563.4180n   21.1589u    7.1816u
  gmb       66.3474u    5.1301u  267.4141u   75.6454u   64.3907u   29.3360u
  cdtot    128.7393f  133.1222f  256.5888f  259.9588f   11.1755f   11.7584f
  cgtot    491.8907f  141.9973f    1.6705p  663.9189f   82.6485f   82.0147f
  cstot    420.5314f  142.1665f    2.0053p  297.2062f  105.8241f  104.7415f
  cbtot    540.9868f   65.6245f    1.1370p    1.0560p   49.4808f   50.5543f
  cgs      224.4234f   71.4354f    1.3257p   41.2744f   72.1006f   70.7443f
  cgd       20.6444f   69.4709f   41.2744f   41.2744f    1.6648f    1.6648f



 subckt             
 element  0:m7      
 model    0:nch.1   
 region       Cutoff
  id       769.3674n
  ibs       -1.1764a
  ibd      -10.6714f
  vgs      640.0448m
  vds      640.0448m
  vbs        0.     
  vth      644.2730m
  vdsat     73.9310m
  vod       -4.2282m
  beta     548.2346u
  gam eff  466.0341m
  gm        14.3686u
  gds       30.6204n
  gmb        4.3476u
  cdtot     10.9483f
  cgtot     28.2174f
  cstot     12.5332f
  cbtot     45.0395f
  cgs        1.6648f
  cgd        1.6648f




          ***** job concluded
1****** HSPICE -- B-2008.09 32-BIT (Aug 26 2008) winnt ******                   
 ******  
 *ueno2009

  ******  job statistics summary tnom=  25.000 temp=  25.000 *****

  ******  HSPICE Threads Information  ******
  Command Line Threads Count:                      0
  Available CPU Count:                             4
  Actual Model Evaluation(Load) Threads Count:     1
  Actual Solver Threads Count:                     1


  ******  Circuit Statistics  ******
  # nodes       =      68  # elements   =      29
  # resistors   =       0  # capacitors =       3  # inductors   =       0
  # mutual_inds =       0  # vccs       =       0  # vcvs        =       0
  # cccs        =       0  # ccvs       =       0  # volt_srcs   =       1
  # curr_srcs   =       0  # diodes     =       0  # bjts        =       0
  # jfets       =       0  # mosfets    =      25  # U elements  =       0
  # T elements  =       0  # W elements =       0  # B elements  =       0
  # S elements  =       0  # P elements =       0  # va device   =       0


  ******  Runtime Statistics (seconds)  ******

  analysis           time    # points   tot. iter  conv.iter
  op point           0.01           1          18
  dc sweep           0.23        1001        2175
  readin             0.17
  errchk             0.02
  setup              0.03
  output             0.00


           total memory used          398  kbytes
           total cpu time            0.53 seconds
           total elapsed time           4 seconds
           job started at     09:41:41 01/20/2018
           job ended   at     09:41:45 01/20/2018


 Init: hspice initialization file: C:\synopsys\Hspice_B-2008.09\hspice.ini
