$DATA1 SOURCE='HSPICE' VERSION='B-2008.09 32-BIT'
.TITLE 'twostageamplifier_step1.1'
 gb               temper           alter#            
  4.690e+08         25.0000           1.0000         
