$DATA1 SOURCE='HSPICE' VERSION='B-2008.09 32-BIT'
.TITLE 'twostageamplifier_step1.1'
 gb               temper           alter#            
  1.577e+07         25.0000           2.0000         
