***** HSPICE -- J-2014.09-SP2-2 64-BIT (Apr 17 2015) win64 ******
 Input File: C:\synopsys\Laboratory Codes ECE130\Nmos\Param 2\codelab2.sp
