 ****** HSPICE -- B-2008.09 32-BIT (Aug 26 2008) winnt ******                   
  Copyright (C) 2008 Synopsys, Inc. All Rights Reserved.                        
  Unpublished-rights reserved under US copyright laws.
  This program is protected by law and is subject to the 
  terms and conditions of the license agreement from Synopsys.
  Use of this program is your acceptance to be bound by the 
  license agreement. HSPICE is the trademark of Synopsys, Inc.
  Input File: e:\jephmari files\my academic files\h. 4th year 1st sem\ece170\sim
 Init: read install configuration file: C:\synopsys\Hspice_B-2008.09\meta.cfg
 Init: hspice initialization file: C:\synopsys\Hspice_B-2008.09\hspice.ini





 .lib 'mm018.l' tt

 .param
 +toxn   = 4.08e-09        toxp   = 4.08e-09       
 +dvthn  = 0               dvthp  = 0              
 +dxl    = 0               dxw    = 0              
 +cjn    = 0.001000266     cjp    = 0.001121       
 +cjswn  = 2.040547e-10    cjswp  = 2.481e-10      
 +cjswgn = 3.340547e-10    cjswgp = 4.221e-10      
 +cgon   = 3.665e-10       cgop   = 3.28e-10      
 +hdifn  = 2e-07           hdifp  = 2e-07          
 .lib 'mm018.l' mos

 ***************************************************************
 *                                                             *
 *               1.8v  mos devices model                       *
 *                                                             *
 ***************************************************************
 *
 .model nch.1            nmos   (                    lmin     = '1.2e-06-dxl'   
 +lmax    = 2.1e-05        wmin     = '1.01e-05-dxw' wmax     = 0.000101       
 +nlev     = 3             af       = 0.8256         kf       = 9.326e-25
 +level   = 49             tnom     = 25             version  = 3.1            
 +tox     = toxn           xj       = 1.6e-07        nch      = 3.9e+17        
 +lln     = 1              lwn      = 1              wln      = 1              
 +wwn     = 1              lint     = 1e-08          ll       = 0              
 +lw      = 0              lwl      = 0              wint     = 1e-08          
 +wl      = 0              ww       = 0              wwl      = 0              
 +mobmod  = 1              binunit  = 2              xl       = '-2e-08+dxl'   
 +xw      = '0+dxw'        dwg      = 0              dwb      = 0              
 +acm     = 12             ldif     = 9e-08          hdif     = hdifn          
 +rsh     = 6.8            rd       = 0              rs       = 0              
 +vth0    = '0.4452004+dvthn' lvth0    = 4.083943e-08   wvth0    = -1.48489e-07   
 +pvth0   = 1.993185e-13   k1       = 0.5099412      lk1      = 3.668304e-08   
 +wk1     = 2.766093e-08   pk1      = -2.19267e-13   k2       = 0.01695608     
 +lk2     = -1.755245e-08  wk2      = -1.034945e-08  pk2      = 6.480148e-14   
 +k3      = 0              dvt0     = 0              dvt1     = 0              
 +dvt2    = 0              dvt0w    = 0              dvt1w    = 0              
 +dvt2w   = 0              nlx      = 0              w0       = 0              
 +k3b     = 0              vsat     = 90659.09       lvsat    = -0.006564545   
 +ua      = -7.469327e-10  lua      = 2.025139e-16   wua      = 1.830494e-15   
 +pua     = -6.726249e-21  ub       = 2.910666e-18   lub      = -1.955871e-25  
 +wub     = -6.764042e-24  pub      = 9.411708e-30   uc       = 1.641302e-10   
 +luc     = -2.017381e-17  wuc      = -5.974077e-16  puc      = 5.963958e-22   
 +rdsw    = 170            prwb     = 0              prwg     = 0              
 +wr      = 1              u0       = 0.04590562     lu0      = 3.578498e-09   
 +wu0     = -4.055627e-08  pu0      = -2.913943e-15  a0       = 0.2119483      
 +la0     = -5.177149e-08  wa0      = 1.948019e-06   pa0      = -3.003349e-12  
 +keta    = -0.005987795   lketa    = -2.748571e-08  wketa    = 1.97602e-07    
 +pketa   = -1.586947e-13  a1       = 0              a2       = 0.99           
 +ags     = 0.02           b0       = 0              b1       = 0              
 +voff    = -0.1498675     lvoff    = 4.906377e-09   wvoff    = 1.042303e-07   
 +pvoff   = -1.550514e-13  nfactor  = 1              cit      = -0.0001267591  
 +lcit    = 2.665205e-10   cdsc     = 0              cdscb    = 0              
 +cdscd   = 0              eta0     = 5e-05          etab     = -5e-05         
 +dsub    = 0              pclm     = 0.7736364      lpclm    = 2.625818e-07   
 +pdiblc1 = 1e-06          pdiblc2  = 0.0003968181   lpdiblc2 = 3.019691e-09   
 +pdiblcb = 0.01           drout    = 0              pscbe1   = 1.736364e+08   
 +lpscbe1 = 262.5818       pscbe2   = 1e-06          pvag     = 0              
 +delta   = 0.01           alpha0   = 6.27411e-08    beta0    = 11.59263       
 +kt1     = -0.2281038     lkt1     = 1.487402e-08   wkt1     = 4.09886e-08    
 +pkt1    = -1.499301e-13  kt2      = -0.02603289    lkt2     = 8.023716e-10   
 +wkt2    = -4.269e-08     pkt2     = -8.087905e-15  at       = 20000          
 +ute     = -1.606637      lute     = 4.379861e-08   wute     = 2.685053e-07   
 +pute    = -4.4149e-13    ua1      = 1.224e-09      ub1      = -1.459973e-18  
 +lub1    = 5.961568e-25   wub1     = 3.423235e-24   pub1     = -6.00926e-30   
 +uc1     = -5.990395e-11  luc1     = 1.037438e-16   wuc1     = 7.225532e-16   
 +puc1    = -1.045737e-21  kt1l     = 0              prt      = 0              
 +cj      = cjn            pb       = 0.6882682      mj       = 0.3595262      
 +cjsw    = cjswn          pbsw     = 0.6882682      mjsw     = 0.2003879      
 +cjswg   = cjswgn         pbswg    = 0.6882682      mjswg    = 0.43879        
 +cgdo    = cgon           cgso     = cgon           cta      = 0.001040287    
 +ctp     = 0.000645489    pta      = 0.001554306    ptp      = 0.001554306    
 +js      = 8.38e-06       jsw      = 1.6e-11        n        = 1              
 +xti     = 3              capmod   = 0              nqsmod   = 0              
 +xpart   = 1              cf       = 0              tlev     = 1              
 +tlevc   = 1              calcacm  = 1              sfvtflag = 0              
 +vfbflag = 1              dlc      = 3e-9  )


 .model nch.2            nmos   (                    lmin     = '5e-07-dxl'      
 +lmax    = '1.2e-06-dxl'  wmin     = '1.01e-05-dxw' wmax     = 0.000101       
 +nlev     = 3             af       = 0.8256         kf       = 9.326e-25
 +level   = 49             tnom     = 25             version  = 3.1            
 +tox     = toxn           xj       = 1.6e-07        nch      = 3.9e+17        
 +lln     = 1              lwn      = 1              wln      = 1              
 +wwn     = 1              lint     = 1e-08          ll       = 0              
 +lw      = 0              lwl      = 0              wint     = 1e-08          
 +wl      = 0              ww       = 0              wwl      = 0              
 +mobmod  = 1              binunit  = 2              xl       = '-2e-08+dxl'   
 +xw      = '0+dxw'        dwg      = 0              dwb      = 0              
 +acm     = 12             ldif     = 9e-08          hdif     = hdifn          
 +rsh     = 6.8            rd       = 0              rs       = 0              
 +vth0    = '0.4690217+dvthn' lvth0    = 1.320675e-08   wvth0    = 1.03913e-07    
 +pvth0   = -9.346779e-14  k1       = 0.5348862      lk1      = 7.746888e-09   
 +wk1     = -3.099871e-08  pk1      = -1.512218e-13  k2       = 0.005167292    
 +lk2     = -3.877456e-09  wk2      = -3.134034e-09  pk2      = 5.643159e-14   
 +k3      = 0              dvt0     = 0              dvt1     = 0              
 +dvt2    = 0              dvt0w    = 0              dvt1w    = 0              
 +dvt2w   = 0              nlx      = 0              w0       = 0              
 +k3b     = 0              vsat     = 85657.14       lvsat    = -0.0007622857  
 +ua      = -4.439753e-10  lua      = -1.489168e-16  wua      = -5.953859e-15  
 +pua     = 2.303602e-21   ub       = 2.349393e-18   lub      = 4.554895e-25   
 +wub     = 6.663095e-24   pub      = -6.163771e-30  uc       = 9.496897e-11   
 +luc     = 6.005324e-17   wuc      = 5.22306e-16    puc      = -7.024722e-22  
 +rdsw    = 170            prwb     = 0              prwg     = 0              
 +wr      = 1              u0       = 0.04780528     lu0      = 1.374896e-09   
 +wu0     = -4.015433e-08  pu0      = -3.380197e-15  a0       = 0.1270388      
 +la0     = 4.67235e-08    wa0      = -4.21675e-06   pa0      = 4.147783e-12   
 +keta    = -0.02483604    lketa    = -5.621754e-09  wketa    = 8.9844e-08     
 +pketa   = -3.369537e-14  a1       = 0              a2       = 0.99           
 +ags     = 0.017056       lags     = 3.41504e-09    wags     = 2.946355e-07   
 +pags    = -3.417772e-13  b0       = 0              b1       = 0              
 +voff    = -0.1517648     lvoff    = 7.107172e-09   wvoff    = -1.044416e-07  
 +pvoff   = 8.700798e-14   nfactor  = 1              cit      = -0.0001578858  
 +lcit    = 3.026274e-10   cdsc     = 0              cdscb    = 0              
 +cdscd   = 0              eta0     = 1.714285e-05   leta0    = 3.811429e-11   
 +etab    = -1.714285e-05  letab    = -3.811429e-11  dsub     = 0              
 +pclm    = 0.8685714      lpclm    = 1.524572e-07   pdiblc1  = 1e-06          
 +pdiblc2 = 0.001685714    lpdiblc2 = 1.524571e-09   pdiblcb  = 0.01           
 +drout   = 0              pscbe1   = 4e+08          pscbe2   = 1e-06          
 +pvag    = 0              delta    = 0.01           alpha0   = 6.27411e-08    
 +beta0   = 11.59263       kt1      = -0.223624      lkt1     = 9.677446e-09   
 +wkt1    = -5.442481e-08  pkt1     = -3.925055e-14  kt2      = -0.02933674    
 +lkt2    = 4.634833e-09   wkt2     = -2.291865e-08  pkt2     = -3.102267e-14  
 +at      = 20000          ute      = -1.638485      lute     = 8.074134e-08   
 +wute    = 2.907924e-06   pute     = -3.503216e-12  ua1      = 1.223706e-09   
 +lua1    = 3.415059e-19   wua1     = 2.946371e-17   pua1     = -3.417791e-23  
 +ub1     = -1.198842e-18  lub1     = 2.932454e-25   wub1     = 1.123821e-23   
 +pub1    = -1.507463e-29  uc1      = 1.573038e-11   luc1     = 1.600793e-17   
 +wuc1    = 5.277456e-16   puc1     = -8.197604e-22  kt1l     = 0              
 +prt     = 0              cj       = cjn            pb       = 0.6882682      
 +mj      = 0.3595262      cjsw     = cjswn          pbsw     = 0.6882682      
 +mjsw    = 0.2003879      cjswg    = cjswgn         pbswg    = 0.6882682      
 +mjswg   = 0.43879        cgdo     = cgon           cgso     = cgon           
 +cta     = 0.001040287    ctp      = 0.000645489    pta      = 0.001554306    
 +ptp     = 0.001554306    js       = 8.38e-06       jsw      = 1.6e-11        
 +n       = 1              xti      = 3              capmod   = 0              
 +nqsmod  = 0              xpart    = 1              cf       = 0              
 +tlev    = 1              tlevc    = 1              calcacm  = 1              
 +sfvtflag= 0              vfbflag  = 1              dlc      = 3e-9  )


 .model nch.3            nmos   (                    lmin     = 1.8e-07        
 +lmax    = '5e-07-dxl'    wmin     = '1.01e-05-dxw' wmax     = 0.000101       
 +nlev    = 3              af       = 0.8256         kf       = 9.326e-25
 +level   = 49             tnom     = 25             version  = 3.1            
 +tox     = toxn           xj       = 1.6e-07        nch      = 3.9e+17        
 +lln     = 1              lwn      = 1              wln      = 1              
 +wwn     = 1              lint     = 1e-08          ll       = 0              
 +lw      = 0              lwl      = 0              wint     = 1e-08          
 +wl      = 0              ww       = 0              wwl      = 0              
 +mobmod  = 1              binunit  = 2              xl       = '-2e-08+dxl'   
 +xw      = '0+dxw'        dwg      = 0              dwb      = 0              
 +acm     = 12             ldif     = 9e-08          hdif     = hdifn          
 +rsh     = 6.8            rd       = 0              rs       = 0              
 +vth0    = '0.4889706+dvthn' lvth0    = 4.03025e-09    wvth0    = -1.385044e-07  
 +pvth0   = 1.804418e-14   k1       = 0.4620976      lk1      = 4.122966e-08   
 +wk1     = -5.300568e-07  pk1      = 7.834502e-14   k2       = 0.04110285     
 +lk2     = -2.040781e-08  wk2      = 1.839435e-07   pk2      = -2.962406e-14  
 +k3      = 0              dvt0     = 0              dvt1     = 0              
 +dvt2    = 0              dvt0w    = 0              dvt1w    = 0              
 +dvt2w   = 0              nlx      = 0              w0       = 0              
 +k3b     = 0              vsat     = 84437.5        lvsat    = -0.00020125    
 +ua      = -7.610477e-10  lua      = -3.063457e-18  wua      = -9.912273e-16  
 +pua     = 2.079115e-23   ub       = 2.63488e-18    lub      = 3.241653e-25   
 +wub     = 2.452493e-25   pub      = -3.211562e-30  uc       = 1.317473e-10   
 +luc     = 4.313522e-17   wuc      = -1.501932e-16  puc      = -3.931226e-22  
 +rdsw    = 170            prwb     = 0              prwg     = 0              
 +wr      = 1              u0       = 0.04633423     lu0      = 2.051578e-09   
 +wu0     = -2.998386e-08  pu0      = -8.05861e-15   a0       = 0.4302041      
 +la0     = -9.273254e-08  wa0      = 1.113129e-06   pa0      = 1.696039e-12   
 +keta    = -0.03103998    lketa    = -2.76794e-09   wketa    = -1.089419e-07  
 +pketa   = 5.774615e-14   a1       = 0              a2       = 0.99           
 +ags     = 0.04393999     lags     = -8.951599e-09  wags     = -6.445151e-07  
 +pags    = 9.023213e-14   b0       = 0              b1       = 0              
 +voff    = -0.1400894     lvoff    = 1.736505e-09   wvoff    = 1.566271e-07   
 +pvoff   = -3.308362e-14  nfactor  = 1              cit      = 0.0002665949   
 +lcit    = 1.073664e-10   wcit     = 5.374534e-11   pcit     = -2.47229e-17   
 +cdsc    = 0              cdscb    = 0              cdscd    = 0              
 +eta0    = -0.00029375    leta0    = 1.81125e-10    etab     = 0.0013875      
 +letab   = -6.8425e-10    dsub     = 0              pclm     = 1.097804       
 +lpclm   = 4.701011e-08   wpclm    = 9.902701e-08   ppclm    = -4.555247e-14  
 +pdiblc1 = 1e-06          pdiblc2  = -0.005937497   lpdiblc2 = 5.03125e-09    
 +pdiblcb = 0.01           drout    = 0              pscbe1   = 4e+08          
 +pscbe2  = 1e-06          pvag     = 0              delta    = 0.01           
 +alpha0  = 6.27411e-08    beta0    = 11.59263       kt1      = -0.2023527     
 +lkt1    = -1.073793e-10  wkt1     = -2.499313e-07  pkt1     = 5.068245e-14   
 +kt2     = -0.01509771    lkt2     = -1.915123e-09  wkt2     = -1.455392e-07  
 +pkt2    = 2.53828e-14    at       = 20004.7        lat      = -2.163157e-06  
 +wat     = -4.740137e-05  pat      = 2.180463e-11   ute      = -1.46527       
 +lute    = 1.062595e-09   wute     = -6.227977e-06  pute     = 6.992989e-13   
 +ua1     = 1.224644e-09   lua1     = -9.016052e-20  wua1     = -6.445188e-17  
 +pua1    = 9.023264e-24   ub1      = -8.07023e-19   lub1     = 1.130082e-25   
 +wub1    = -2.744663e-23  pub1     = 2.720394e-30   uc1      = 9.072359e-12   
 +luc1    = 1.907063e-17   wuc1     = -1.485916e-15  puc1     = 1.065238e-22   
 +kt1l    = 0              prt      = 0              cj       = cjn            
 +pb      = 0.6882682      mj       = 0.3595262      cjsw     = cjswn          
 +pbsw    = 0.6882682      mjsw     = 0.2003879      cjswg    = cjswgn         
 +pbswg   = 0.6882682      mjswg    = 0.43879        cgdo     = cgon           
 +cgso    = cgon           cta      = 0.001040287    ctp      = 0.000645489    
 +pta     = 0.001554306    ptp      = 0.001554306    js       = 8.38e-06       
 +jsw     = 1.6e-11        n        = 1              xti      = 3              
 +capmod  = 0              nqsmod   = 0              xpart    = 1              
 +cf      = 0              tlev     = 1              tlevc    = 1              
 +calcacm = 1              sfvtflag = 0              vfbflag  = 1       
 +dlc     = 3e-9       )


 .model nch.4            nmos   (                    lmin     = '1.2e-06-dxl'    
 +lmax    = 2.1e-05        wmin     = '1.3e-06-dxw'  wmax     = '1.01e-05-dxw'  
 +nlev     = 3             af       = 0.8256         kf       = 9.326e-25
 +level   = 49             tnom     = 25             version  = 3.1            
 +tox     = toxn           xj       = 1.6e-07        nch      = 3.9e+17        
 +lln     = 1              lwn      = 1              wln      = 1              
 +wwn     = 1              lint     = 1e-08          ll       = 0              
 +lw      = 0              lwl      = 0              wint     = 1e-08          
 +wl      = 0              ww       = 0              wwl      = 0              
 +mobmod  = 1              binunit  = 2              xl       = '-2e-08+dxl'   
 +xw      = '0+dxw'        dwg      = 0              dwb      = 0              
 +acm     = 12             ldif     = 9e-08          hdif     = hdifn          
 +rsh     = 6.8            rd       = 0              rs       = 0              
 +vth0    = '0.4303551+dvthn' lvth0    = 6.063544e-08   wvth0    = 1.151582e-09   
 +pvth0   = -2.252282e-16  k1       = 0.5079118      lk1      = 1.708006e-08   
 +wk1     = 4.811752e-08   pk1      = -2.166895e-14  k2       = 0.01749582     
 +lk2     = -1.215701e-08  wk2      = -1.579011e-08  pk2      = 1.041545e-14   
 +k3      = 0              dvt0     = 0              dvt1     = 0              
 +dvt2    = 0              dvt0w    = 0              dvt1w    = 0              
 +dvt2w   = 0              nlx      = 0              w0       = 0              
 +k3b     = 0              vsat     = 90678.27       lvsat    = -0.006755514   
 +wvsat   = -0.0001932689  pvsat    = 1.924963e-09   ua       = -5.334703e-10  
 +lua     = -5.097949e-16  wua      = -3.212069e-16  pua      = 4.538242e-22   
 +ub      = 2.252485e-18   lub      = 7.926502e-25   wub      = -1.295807e-25  
 +pub     = -5.497242e-31  uc       = 1.065297e-10   luc      = 3.988117e-17   
 +wuc     = -1.679473e-17  puc      = -8.958444e-24  rdsw     = 170            
 +prwb    = 0              prwg     = 0              wr       = 1              
 +u0      = 0.04281001     lu0      = 3.050399e-09   wu0      = -9.352497e-09  
 +pu0     = 2.409294e-15   a0       = 0.4075408      la0      = -3.610417e-07  
 +wa0     = -2.355343e-08  pa0      = 1.140953e-13   keta     = 0.01500895     
 +lketa   = -4.536782e-08  wketa    = -1.404518e-08  pketa    = 2.155698e-14   
 +a1      = 0              a2       = 0.99           ags      = 0.02           
 +b0      = 0              b1       = 0              voff     = -0.1395841     
 +lvoff   = -1.091341e-08  wvoff    = 5.73079e-10    pvoff    = 4.41203e-15    
 +nfactor = 1              cit      = -0.0001267591  lcit     = 2.665205e-10   
 +cdsc    = 0              cdscb    = 0              cdscd    = 0              
 +eta0    = 5e-05          etab     = -5e-05         dsub     = 0              
 +pclm    = 0.7755538      lpclm    = 2.434849e-07   wpclm    = -1.932694e-08  
 +ppclm   = 1.924964e-13   pdiblc1  = 1e-06          pdiblc2  = 0.0003968181   
 +lpdiblc2= 3.019691e-09   pdiblcb  = 0.01           drout    = 0              
 +pscbe1  = 1.736364e+08   lpscbe1  = 262.5818       pscbe2   = 1e-06          
 +pvag    = 0              delta    = 0.01           alpha0   = 6.27411e-08    
 +beta0   = 11.59263       kt1      = -0.2231153     lkt1     = -3.905888e-10  
 +wkt1    = -9.296202e-09  pkt1     = 3.937134e-15   kt2      = -0.03050068    
 +lkt2    = 4.543159e-10   wkt2     = 2.345302e-09   pkt2     = -4.579503e-15  
 +at      = 20000          ute      = -1.580575      lute     = 5.729051e-09   
 +wute    = 5.798076e-09   pute     = -5.774884e-14  ua1      = 1.224e-09      
 +ub1     = -1.059435e-18  lub1     = -4.518781e-26  wub1     = -6.141879e-25  
 +pub1    = 4.554933e-31   uc1      = 2.59445e-11    luc1     = -7.81201e-18   
 +wuc1    = -1.427992e-16  puc1     = 7.874507e-23   kt1l     = 0              
 +prt     = 0              cj       = cjn            pb       = 0.6882682      
 +mj      = 0.3595262      cjsw     = cjswn          pbsw     = 0.6882682      
 +mjsw    = 0.2003879      cjswg    = cjswgn         pbswg    = 0.6882682      
 +mjswg   = 0.43879        cgdo     = cgon           cgso     = cgon           
 +cta     = 0.001040287    ctp      = 0.000645489    pta      = 0.001554306    
 +ptp     = 0.001554306    js       = 8.38e-06       jsw      = 1.6e-11        
 +n       = 1              xti      = 3              capmod   = 0              
 +nqsmod  = 0              xpart    = 1              cf       = 0              
 +tlev    = 1              tlevc    = 1              calcacm  = 1              
 +sfvtflag= 0              vfbflag  = 1              dlc      = 3e-9 )


 .model nch.5            nmos   (                    lmin     = '5e-07-dxl'      
 +lmax    = '1.2e-06-dxl'  wmin     = '1.3e-06-dxw'  wmax     = '1.01e-05-dxw'   
 +nlev     = 3             af       = 0.8256         kf       = 9.326e-25
 +level   = 49             tnom     = 25             version  = 3.1            
 +tox     = toxn           xj       = 1.6e-07        nch      = 3.9e+17        
 +lln     = 1              lwn      = 1              wln      = 1              
 +wwn     = 1              lint     = 1e-08          ll       = 0              
 +lw      = 0              lwl      = 0              wint     = 1e-08          
 +wl      = 0              ww       = 0              wwl      = 0              
 +mobmod  = 1              binunit  = 2              xl       = '-2e-08+dxl'   
 +xw      = '0+dxw'        dwg      = 0              dwb      = 0              
 +acm     = 12             ldif     = 9e-08          hdif     = hdifn          
 +rsh     = 6.8            rd       = 0              rs       = 0              
 +vth0    = '0.4799766+dvthn' lvth0    = 3.074509e-09   wvth0    = -6.512545e-09  
 +pvth0   = 8.665152e-15   k1       = 0.5324208      lk1      = -1.135038e-08  
 +wk1     = -6.147623e-09  pk1      = 4.127862e-14   k2       = 0.004003276    
 +lk2     = 3.494347e-09   wk2      = 8.599232e-09   pk2      = -1.787618e-14  
 +k3      = 0              dvt0     = 0              dvt1     = 0              
 +dvt2    = 0              dvt0w    = 0              dvt1w    = 0              
 +dvt2w   = 0              nlx      = 0              w0       = 0              
 +k3b     = 0              vsat     = 85511.69       lvsat    = -0.0007622857  
 +wvsat   = 0.001466182    ua       = -1.023122e-09  lua      = 5.820092e-17   
 +wua     = -1.160614e-16  pua      = 2.158555e-22   ub       = 3.043298e-18   
 +lub     = -1.246927e-25  wub      = -3.314691e-25  pub      = -3.155337e-31  
 +uc      = 1.463423e-10   luc      = -6.301452e-18  wuc      = 4.462591e-18   
 +puc     = -3.361694e-23  rdsw     = 170            prwb     = 0              
 +prwg    = 0              wr       = 1              u0       = 0.04463334     
 +lu0     = 9.35341e-10    wu0      = -8.181137e-09  pu0      = 1.050515e-15   
 +a0      = -0.3045075     la0      = 4.649343e-07   wa0      = 1.332365e-07   
 +pa0     = -6.778103e-14  keta     = -0.01546816    lketa    = -1.001437e-08  
 +wketa   = -4.584175e-09  pketa    = 1.058221e-14   a1       = 0              
 +a2      = 0.99           ags      = 0.05010909     lags     = -3.492654e-08  
 +wags    = -3.853963e-08  pags     = 4.470598e-14   b0       = 0              
 +b1      = 0              voff     = -0.1628752     lvoff    = 1.610426e-08   
 +wvoff   = 7.551262e-09   pvoff    = -3.68266e-15   nfactor  = 1              
 +cit     = -0.0001578858  lcit     = 3.026274e-10   cdsc     = 0              
 +cdscb   = 0              cdscd    = 0              eta0     = 1.714286e-05   
 +leta0   = 3.811428e-11   etab     = -1.714286e-05  letab    = -3.811428e-11  
 +dsub    = 0              pclm     = 0.8540259      lpclm    = 1.524572e-07   
 +wpclm   = 1.466183e-07   pdiblc1  = 1e-06          pdiblc2  = 0.001781299    
 +lpdiblc2= 1.413693e-09   wpdiblc2 = -9.634911e-10  ppdiblc2 = 1.11765e-15    
 +pdiblcb = 0.01           drout    = 0              pscbe1   = 4e+08          
 +pscbe2  = 1e-06          pvag     = 0              delta    = 0.01           
 +alpha0  = 6.27411e-08    beta0    = 11.59263       kt1      = -0.2285168     
 +lkt1    = 5.875238e-09   wkt1     = -5.105314e-09  pkt1     = -9.242955e-16  
 +kt2     = -0.03146011    lkt2     = 1.567252e-09   wkt2     = -1.515083e-09  
 +pkt2    = -1.014558e-16  at       = 20000          ute      = -1.303027      
 +lute    = -3.162274e-07  wute     = -4.734936e-07  pute     = 4.982295e-13   
 +ua1     = 1.227011e-09   lua1     = -3.492674e-18  wua1     = -3.853985e-18  
 +pua1    = 4.470623e-24   ub1      = 9.605878e-20   lub1     = -1.385561e-24  
 +wub1    = -1.814396e-24  pub1     = 1.847735e-30   uc1      = 8.797449e-11   
 +luc1    = -7.976681e-17  wuc1     = -2.004749e-16  puc1     = 1.456489e-22   
 +kt1l    = 0              prt      = 0              cj       = cjn            
 +pb      = 0.6882682      mj       = 0.3595262      cjsw     = cjswn          
 +pbsw    = 0.6882682      mjsw     = 0.2003879      cjswg    = cjswgn         
 +pbswg   = 0.6882682      mjswg    = 0.43879        cgdo     = cgon           
 +cgso    = cgon           cta      = 0.001040287    ctp      = 0.000645489    
 +pta     = 0.001554306    ptp      = 0.001554306    js       = 8.38e-06       
 +jsw     = 1.6e-11        n        = 1              xti      = 3              
 +capmod  = 0              nqsmod   = 0              xpart    = 1              
 +cf      = 0              tlev     = 1              tlevc    = 1              
 +calcacm = 1              sfvtflag = 0              vfbflag  = 1          
 +dlc     = 3e-9            )


 .model nch.6            nmos   (                    lmin     = 1.8e-07        
 +lmax    = '5e-07-dxl'    wmin     = '1.3e-06-dxw'  wmax     = '1.01e-05-dxw'   
 +nlev     = 3             af       = 0.8256         kf       = 9.326e-25
 +level   = 49             tnom     = 25             version  = 3.1            
 +tox     = toxn           xj       = 1.6e-07        nch      = 3.9e+17        
 +lln     = 1              lwn      = 1              wln      = 1              
 +wwn     = 1              lint     = 1e-08          ll       = 0              
 +lw      = 0              lwl      = 0              wint     = 1e-08          
 +wl      = 0              ww       = 0              wwl      = 0              
 +mobmod  = 1              binunit  = 2              xl       = '-2e-08+dxl'   
 +xw      = '0+dxw'        dwg      = 0              dwb      = 0              
 +acm     = 12             ldif     = 9e-08          hdif     = hdifn          
 +rsh     = 6.8            rd       = 0              rs       = 0              
 +vth0    = '0.4751247+dvthn' lvth0    = 5.306376e-09   wvth0    = 1.062077e-09   
 +pvth0   = 5.180826e-15   k1       = 0.3998241      lk1      = 4.964413e-08   
 +wk1     = 9.765969e-08   pk1      = -6.472741e-15  k2       = 0.06352166     
 +lk2     = -2.388411e-08  wk2      = -4.203799e-08  pk2      = 5.416945e-15   
 +k3      = 0              dvt0     = 0              dvt1     = 0              
 +dvt2    = 0              dvt0w    = 0              dvt1w    = 0              
 +dvt2w   = 0              nlx      = 0              w0       = 0              
 +k3b     = 0              vsat     = 84292.05       lvsat    = -0.00020125    
 +wvsat   = 0.001466182    ua       = -9.057631e-10  lua      = 4.215886e-18   
 +wua     = 4.675041e-16   pua      = -5.258461e-23  ub       = 2.760486e-18   
 +lub     = 5.400765e-27   wub      = -1.020856e-24  pub      = 1.584294e-33   
 +uc      = 1.234253e-10   luc      = 4.240396e-18   wuc      = -6.630735e-17  
 +puc     = -1.06277e-24   rdsw     = 170            prwb     = 0              
 +prwg    = 0              wr       = 1              u0       = 0.04387662     
 +lu0     = 1.283432e-09   wu0      = -5.211112e-09  pu0      = -3.156964e-16  
 +a0      = 0.5262759      la0      = 8.277392e-08   wa0      = 1.447255e-07   
 +pa0     = -7.306591e-14  keta     = -0.04428695    lketa    = 3.242273e-09   
 +wketa   = 2.458758e-08   pketa    = -2.8368e-15    a1       = 0              
 +a2      = 0.99           ags      = -0.02836364    lags     = 1.170909e-09   
 +wags    = 8.430546e-08   pags     = -1.180276e-14  b0       = 0              
 +b1      = 0              voff     = -0.1246745     lvoff    = -1.468027e-09  
 +wvoff   = 1.245329e-09   pvoff    = -7.81931e-16   nfactor  = 1              
 +cit     = 0.0002756616   lcit     = 1.031957e-10   wcit     = -3.764672e-11  
 +pcit    = 1.731749e-17   cdsc     = 0              cdscb    = 0              
 +cdscd   = 0              eta0     = -0.00029375    leta0    = 1.81125e-10    
 +etab    = 0.0013875      letab    = -6.8425e-10    dsub     = 0              
 +pclm    = 1.102557       lpclm    = 3.813286e-08   wpclm    = 5.111752e-08   
 +ppclm   = 4.393024e-14   pdiblc1  = 1e-06          pdiblc2  = -0.006146589   
 +lpdiblc2= 5.060522e-09   wpdiblc2 = 2.107634e-09   ppdiblc2 = -2.950686e-16  
 +pdiblcb = 0.01           drout    = 0              pscbe1   = 4e+08          
 +pscbe2  = 1e-06          pvag     = 0              delta    = 0.01           
 +alpha0  = 6.27411e-08    beta0    = 11.59263       kt1      = -0.2268918     
 +lkt1    = 5.127722e-09   wkt1     = -2.576878e-09  pkt1     = -2.087376e-15  
 +kt2     = -0.02937242    lkt2     = 6.06917e-10    wkt2     = -1.65007e-09   
 +pkt2    = -3.93619e-17   at       = 20000          ute      = -2.172423      
 +lute    = 8.369503e-08   wute     = 9.001274e-07   pute     = -1.336361e-13  
 +ua1     = 1.217414e-09   lua1     = 9.220962e-19   wua1     = 8.430593e-18   
 +pua1    = -1.180283e-24  ub1      = -3.852224e-18  lub1     = 4.306491e-25   
 +wub1    = 3.248998e-24   pub1     = -4.814262e-31  uc1      = -1.568814e-10  
 +luc1    = 3.286692e-17   wuc1     = 1.868985e-16   puc1     = -3.254285e-23  
 +kt1l    = 0              prt      = 0              cj       = cjn            
 +pb      = 0.6882682      mj       = 0.3595262      cjsw     = cjswn          
 +pbsw    = 0.6882682      mjsw     = 0.2003879      cjswg    = cjswgn         
 +pbswg   = 0.6882682      mjswg    = 0.43879        cgdo     = cgon           
 +cgso    = cgon           cta      = 0.001040287    ctp      = 0.000645489    
 +pta     = 0.001554306    ptp      = 0.001554306    js       = 8.38e-06       
 +jsw     = 1.6e-11        n        = 1              xti      = 3              
 +capmod  = 0              nqsmod   = 0              xpart    = 1              
 +cf      = 0              tlev     = 1              tlevc    = 1              
 +calcacm = 1              sfvtflag = 0              vfbflag  = 1       
 +dlc     = 3e-9       )


 .model nch.7            nmos   (                    lmin     = '1.2e-06-dxl'    
 +lmax    = 2.1e-05        wmin     = '6e-07-dxw'    wmax     = '1.3e-06-dxw'   
 +nlev     = 3             af       = 0.8256         kf       = 9.326e-25
 +level   = 49             tnom     = 25             version  = 3.1            
 +tox     = toxn           xj       = 1.6e-07        nch      = 3.9e+17        
 +lln     = 1              lwn      = 1              wln      = 1              
 +wwn     = 1              lint     = 1e-08          ll       = 0              
 +lw      = 0              lwl      = 0              wint     = 1e-08          
 +wl      = 0              ww       = 0              wwl      = 0              
 +mobmod  = 1              binunit  = 2              xl       = '-2e-08+dxl'   
 +xw      = '0+dxw'        dwg      = 0              dwb      = 0              
 +acm     = 12             ldif     = 9e-08          hdif     = hdifn          
 +rsh     = 6.8            rd       = 0              rs       = 0              
 +vth0    = '0.4337114+dvthn' lvth0    = 6.675699e-08   wvth0    = -3.144492e-09  
 +pvth0   = -8.060817e-15  k1       = 0.5648248      lk1      = 2.192964e-08   
 +wk1     = -2.47311e-08   pk1      = -2.787642e-14  k2       = -0.0002770806  
 +lk2     = -9.479984e-09  wk2      = 6.959211e-09   pk2      = 6.988862e-15   
 +k3      = 0              dvt0     = 0              dvt1     = 0              
 +dvt2    = 0              dvt0w    = 0              dvt1w    = 0              
 +dvt2w   = 0              nlx      = 0              w0       = 0              
 +k3b     = 0              vsat     = 90636.49       lvsat    = -0.006339475   
 +wvsat   = -0.0001398028  pvsat    = 1.392434e-09   ua       = -9.356199e-10  
 +lua     = -2.007095e-16  wua      = 1.935446e-16   pua      = 5.819503e-23   
 +ub      = 2.352719e-18   lub      = 3.53453e-25    wub      = -2.578803e-25  
 +pub     = 1.244829e-32   uc       = 1.089601e-10   luc      = 3.56231e-17    
 +wuc     = -1.990555e-17  puc      = -3.508111e-24  rdsw     = 170            
 +prwb    = 0              prwg     = 0              wr       = 1              
 +u0      = 0.03490788     lu0      = 2.751226e-09   wu0      = 7.622277e-10   
 +pu0     = 2.792237e-15   a0       = 0.2937173      la0      = -1.629362e-07  
 +wa0     = 1.221407e-07   pa0      = -1.394798e-13  keta     = 0.003630752    
 +lketa   = -2.766508e-08  wketa    = 5.189081e-10   pketa    = -1.102526e-15  
 +a1      = 0              a2       = 0.99           ags      = 0.02           
 +b0      = 0              b1       = 0              voff     = -0.1393593     
 +lvoff   = -1.120061e-09  wvoff    = 2.853291e-10   pvoff    = -8.123458e-15  
 +nfactor = 1              cit      = -0.0001267591  lcit     = 2.665205e-10   
 +cdsc    = 0              cdscb    = 0              cdscd    = 0              
 +eta0    = 5e-05          etab     = -5e-05         dsub     = 0              
 +pclm    = 0.7713767      lpclm    = 2.850888e-07   wpclm    = -1.398026e-08  
 +ppclm   = 1.392434e-13   pdiblc1  = 1e-06          pdiblc2  = 0.0003968183   
 +lpdiblc2= 3.019691e-09   pdiblcb  = 0.01           drout    = 0              
 +pscbe1  = 1.736364e+08   lpscbe1  = 262.5818       pscbe2   = 1e-06          
 +pvag    = 0              delta    = 0.01           alpha0   = 6.27411e-08    
 +beta0   = 11.59263       kt1      = -0.2294805     lkt1     = -6.668915e-09  
 +wkt1    = -1.148684e-09  pkt1     = 1.197339e-14   kt2      = -0.02756653    
 +lkt2    = -3.983356e-09  wkt2     = -1.410404e-09  pkt2     = 1.100718e-15   
 +at      = 20000          ute      = -1.612465      lute     = -6.751966e-09  
 +wute    = 4.661704e-08   pute     = -4.177314e-14  ua1      = 1.224e-09      
 +ub1     = -1.546692e-18  lub1     = 3.371048e-25   wub1     = 9.500769e-27   
 +pub1    = -3.38413e-32   uc1      = -7.376004e-11  luc1     = 4.105292e-17   
 +wuc1    = -1.517736e-17  puc1     = 1.619797e-23   kt1l     = 0              
 +prt     = 0              cj       = cjn            pb       = 0.6882682      
 +mj      = 0.3595262      cjsw     = cjswn          pbsw     = 0.6882682      
 +mjsw    = 0.2003879      cjswg    = cjswgn         pbswg    = 0.6882682      
 +mjswg   = 0.43879        cgdo     = cgon           cgso     = cgon           
 +cta     = 0.001040287    ctp      = 0.000645489    pta      = 0.001554306    
 +ptp     = 0.001554306    js       = 8.38e-06       jsw      = 1.6e-11        
 +n       = 1              xti      = 3              capmod   = 0              
 +nqsmod  = 0              xpart    = 1              cf       = 0              
 +tlev    = 1              tlevc    = 1              calcacm  = 1              
 +sfvtflag= 0              vfbflag  = 1              dlc      = 3e-9  )


 .model nch.8            nmos   (                    lmin     = '5e-07-dxl'      
 +lmax    = '1.2e-06-dxl'  wmin     = '6e-07-dxw'    wmax     = '1.3e-06-dxw'   
 +nlev     = 3             af       = 0.8256         kf       = 9.326e-25
 +level   = 49             tnom     = 25             version  = 3.1            
 +tox     = toxn           xj       = 1.6e-07        nch      = 3.9e+17        
 +lln     = 1              lwn      = 1              wln      = 1              
 +wwn     = 1              lint     = 1e-08          ll       = 0              
 +lw      = 0              lwl      = 0              wint     = 1e-08          
 +wl      = 0              ww       = 0              wwl      = 0              
 +mobmod  = 1              binunit  = 2              xl       = '-2e-08+dxl'   
 +xw      = '0+dxw'        dwg      = 0              dwb      = 0              
 +acm     = 12             ldif     = 9e-08          hdif     = hdifn          
 +rsh     = 6.8            rd       = 0              rs       = 0              
 +vth0    = '0.4808935+dvthn' lvth0    = 1.202573e-08   wvth0    = -7.686219e-09  
 +pvth0   = -2.792416e-15  k1       = 0.5770396      lk1      = 7.760477e-09   
 +wk1     = -6.325968e-08  pk1      = 1.681673e-14   k2       = -0.005123796   
 +lk2     = -3.857791e-09  wk2      = 2.028189e-08   pk2      = -8.465442e-15  
 +k3      = 0              dvt0     = 0              dvt1     = 0              
 +dvt2    = 0              dvt0w    = 0              dvt1w    = 0              
 +dvt2w   = 0              nlx      = 0              w0       = 0              
 +k3b     = 0              vsat     = 85828.57       lvsat    = -0.0007622857  
 +wvsat   = 0.001060571    ua       = -1.424596e-09  lua      = 3.665024e-16   
 +wua     = 3.978251e-16   pua      = -1.787704e-22  ub       = 3.028664e-18   
 +lub     = -4.306433e-25  wub      = -3.127378e-25  pub      = 7.608303e-32   
 +uc      = 1.63363e-10    luc      = -2.748434e-17  wuc      = -1.732388e-17  
 +puc     = -6.502839e-24  rdsw     = 170            prwb     = 0              
 +prwg    = 0              wr       = 1              u0       = 0.03449604     
 +lu0     = 3.228961e-09   wu0      = 4.794603e-09   pu0      = -1.885319e-15  
 +a0      = -0.2092096     la0      = 4.20459e-07    wa0      = 1.12553e-08    
 +pa0     = -1.085273e-14  keta     = -0.01817785    lketa    = -2.367101e-09  
 +wketa   = -1.115772e-09  pketa    = 7.937026e-16   a1       = 0              
 +a2      = 0.99           ags      = 0.02           b0       = 0              
 +b1      = 0              voff     = -0.1488233     lvoff    = 9.858188e-09   
 +wvoff   = -1.043516e-08  pvoff    = 4.31231e-15    nfactor  = 1              
 +cit     = -0.0001578858  lcit     = 3.026274e-10   cdsc     = 0              
 +cdscb   = 0              cdscd    = 0              eta0     = 1.714285e-05   
 +leta0   = 3.811429e-11   etab     = -1.714285e-05  letab    = -3.811429e-11  
 +dsub    = 0              pclm     = 0.9401633      lpclm    = 8.929624e-08   
 +wpclm   = 3.636246e-08   ppclm    = 8.084588e-14   pdiblc1  = 1e-06          
 +pdiblc2 = 0.001028572    lpdiblc2 = 2.286857e-09   pdiblcb  = 0.01           
 +drout   = 0              pscbe1   = 4e+08          pscbe2   = 1e-06          
 +pvag    = 0              delta    = 0.01           alpha0   = 6.27411e-08    
 +beta0   = 11.59263       kt1      = -0.2414929     lkt1     = 7.265427e-09   
 +wkt1    = 1.150402e-08   pkt1     = -2.703738e-15  kt2      = -0.03334108    
 +lkt2    = 2.715118e-09   wkt2     = 8.925629e-10   pkt2     = -1.570723e-15  
 +at      = 20000          ute      = -1.86406       lute     = 2.85098e-07    
 +wute    = 2.44629e-07    pute     = -2.71467e-13   ua1      = 1.224e-09      
 +ub1     = -1.864369e-18  lub1     = 7.05611e-25    wub1     = 6.949518e-25   
 +pub1    = -8.289646e-31  uc1      = -1.092616e-10  luc1     = 8.223476e-17   
 +wuc1    = 5.198735e-17   puc1     = -6.171309e-23  kt1l     = 0              
 +prt     = 0              cj       = cjn            pb       = 0.6882682      
 +mj      = 0.3595262      cjsw     = cjswn          pbsw     = 0.6882682      
 +mjsw    = 0.2003879      cjswg    = cjswgn         pbswg    = 0.6882682      
 +mjswg   = 0.43879        cgdo     = cgon           cgso     = cgon           
 +cta     = 0.001040287    ctp      = 0.000645489    pta      = 0.001554306    
 +ptp     = 0.001554306    js       = 8.38e-06       jsw      = 1.6e-11        
 +n       = 1              xti      = 3              capmod   = 0              
 +nqsmod  = 0              xpart    = 1              cf       = 0              
 +tlev    = 1              tlevc    = 1              calcacm  = 1              
 +sfvtflag= 0              vfbflag  = 1              dlc      = 3e-9  )


 .model nch.9            nmos   (                    lmin     = 1.8e-07        
 +lmax    = '5e-07-dxl'    wmin     = '6e-07-dxw'    wmax     = '1.3e-06-dxw'  
 +nlev     = 3             af       = 0.8256         kf       = 9.326e-25
 +level   = 49             tnom     = 25             version  = 3.1            
 +tox     = toxn           xj       = 1.6e-07        nch      = 3.9e+17        
 +lln     = 1              lwn      = 1              wln      = 1              
 +wwn     = 1              lint     = 1e-08          ll       = 0              
 +lw      = 0              lwl      = 0              wint     = 1e-08          
 +wl      = 0              ww       = 0              wwl      = 0              
 +mobmod  = 1              binunit  = 2              xl       = '-2e-08+dxl'   
 +xw      = '0+dxw'        dwg      = 0              dwb      = 0              
 +acm     = 12             ldif     = 9e-08          hdif     = hdifn          
 +rsh     = 6.8            rd       = 0              rs       = 0              
 +vth0    = '0.481488+dvthn' lvth0    = 1.17523e-08    wvth0    = -7.082873e-09  
 +pvth0   = -3.069955e-15  k1       = 0.4891953      lk1      = 4.816888e-08   
 +wk1     = -1.673544e-08  pk1      = -4.58442e-15   k2       = 0.0302083      
 +lk2     = -2.011056e-08  wk2      = 6.031026e-10   pk2      = 5.867986e-16   
 +k3      = 0              dvt0     = 0              dvt1     = 0              
 +dvt2    = 0              dvt0w    = 0              dvt1w    = 0              
 +dvt2w   = 0              nlx      = 0              w0       = 0              
 +k3b     = 0              vsat     = 84637.98       lvsat    = -0.0002146133  
 +wvsat   = 0.001023387    pvsat    = 1.710496e-11   ua       = -5.066291e-10  
 +lua     = -5.57622e-17   wua      = -4.338739e-17  pua      = 2.418733e-23   
 +ub      = 1.984037e-18   lub      = 4.988523e-26   wub      = -2.700116e-26  
 +pub     = -5.535582e-32  uc       = 7.191223e-11   luc      = 1.458302e-17   
 +wuc     = -3.706532e-19  puc      = -1.430133e-23  rdsw     = 170            
 +prwb    = 0              prwg     = 0              wr       = 1              
 +u0      = 0.04022617     lu0      = 5.931013e-10   wu0      = -5.385397e-10  
 +pu0     = 5.679271e-16   a0       = 0.5373152      la0      = 7.705761e-08   
 +wa0     = 1.305951e-07   pa0      = -6.574904e-14  keta     = -0.02712423    
 +lketa   = 1.748234e-09   wketa    = 2.6193e-09     pketa    = -9.244303e-16  
 +a1      = 0              a2       = 0.99           ags      = 0.03866202     
 +lags    = -8.58453e-09   wags     = -1.487385e-09  pags     = 6.841983e-16   
 +b0      = 0              b1       = 0              voff     = -0.1276647     
 +lvoff   = 1.252623e-10   wvoff    = 5.072778e-09   pvoff    = -2.821342e-15  
 +nfactor = 1              cit      = 0.0002127283   lcit     = 1.32145e-10    
 +wcit    = 4.290785e-11   pcit     = -1.973761e-17  cdsc     = 0              
 +cdscb   = 0              cdscd    = 0              eta0     = -0.0003198954  
 +leta0   = 1.931519e-10   weta0    = 3.346616e-11   peta0    = -1.539446e-17  
 +etab    = 0.001419582    letab    = -6.990077e-10  wetab    = -4.106481e-11  
 +petab   = 1.888986e-17   dsub     = 0              pclm     = 0.9740778      
 +lpclm   = 7.369557e-08   wpclm    = 2.155709e-07   ppclm    = -1.590029e-15  
 +pdiblc1 = 1e-06          pdiblc2  = -0.003529964   lpdiblc2 = 4.383784e-09   
 +wpdiblc2= -1.241645e-09  ppdiblc2 = 5.711567e-16   pdiblcb  = 0.01           
 +drout   = 0              pscbe1   = 4e+08          pscbe2   = 1e-06          
 +pvag    = 0              delta    = 0.01           alpha0   = 6.27411e-08    
 +beta0   = 11.59263       kt1      = -0.2299624     lkt1     = 1.961425e-09   
 +wkt1    = 1.35353e-09    pkt1     = 1.965485e-15   kt2      = -0.02660687    
 +lkt2    = -3.826203e-10  wkt2     = -5.189979e-09  pkt2     = 1.227246e-15   
 +at      = 20000          ute      = -1.094227      lute     = -6.902506e-08  
 +wute    = -4.799637e-07  pute     = 6.184562e-14   ua1      = 1.224e-09      
 +ub1     = -5.722656e-20  lub1     = -1.256748e-25  wub1     = -1.608598e-24  
 +pub1    = 2.306684e-31   uc1      = 1.072241e-10   luc1     = -1.734869e-17  
 +wuc1    = -1.511566e-16  puc1     = 3.173314e-23   kt1l     = 0              
 +prt     = 0              cj       = cjn            pb       = 0.6882682      
 +mj      = 0.3595262      cjsw     = cjswn          pbsw     = 0.6882682      
 +mjsw    = 0.2003879      cjswg    = cjswgn         pbswg    = 0.6882682      
 +mjswg   = 0.43879        cgdo     = cgon           cgso     = cgon           
 +cta     = 0.001040287    ctp      = 0.000645489    pta      = 0.001554306    
 +ptp     = 0.001554306    js       = 8.38e-06       jsw      = 1.6e-11        
 +n       = 1              xti      = 3              capmod   = 0              
 +nqsmod  = 0              xpart    = 1              cf       = 0              
 +tlev    = 1              tlevc    = 1              calcacm  = 1              
 +sfvtflag= 0              vfbflag  = 1              dlc      = 3e-9  )


 .model nch.10           nmos   (                    lmin     = '1.2e-06-dxl'    
 +lmax    = 2.1e-05        wmin     = 2.2e-07        wmax     = '6e-07-dxw' 
 +nlev     = 3             af       = 0.8256         kf       = 9.326e-25
 +level   = 49             tnom     = 25             version  = 3.1            
 +tox     = toxn           xj       = 1.6e-07        nch      = 3.9e+17        
 +lln     = 1              lwn      = 1              wln      = 1              
 +wwn     = 1              lint     = 1e-08          ll       = 0              
 +lw      = 0              lwl      = 0              wint     = 1e-08          
 +wl      = 0              ww       = 0              wwl      = 0              
 +mobmod  = 1              binunit  = 2              xl       = '-2e-08+dxl'   
 +xw      = '0+dxw'        dwg      = 0              dwb      = 0              
 +acm     = 12             ldif     = 9e-08          hdif     = hdifn          
 +rsh     = 6.8            rd       = 0              rs       = 0              
 +vth0    = '0.4352488+dvthn' lvth0    = 5.971231e-08   wvth0    = -4.036178e-09  
 +pvth0   = -3.974899e-15  k1       = 0.5279656      lk1      = -6.041289e-08  
 +wk1     = -3.352767e-09  pk1      = 1.988225e-14   k2       = 0.01424122     
 +lk2     = 1.937711e-08   wk2      = -1.461409e-09  pk2      = -9.748253e-15  
 +k3      = 0              dvt0     = 0              dvt1     = 0              
 +dvt2    = 0              dvt0w    = 0              dvt1w    = 0              
 +dvt2w   = 0              nlx      = 0              w0       = 0              
 +k3b     = 0              vsat     = 90518.48       lvsat    = -0.005164109   
 +wvsat   = -7.135755e-05  pvsat    = 7.107215e-10   ua       = -5.753777e-10  
 +lua     = -1.265512e-16  wua      = -1.539588e-17  pua      = 1.51832e-23    
 +ub      = 1.668276e-18   lub      = 7.517433e-25   wub      = 1.390964e-25   
 +pub     = -2.185601e-31  uc       = 6.614737e-11   luc      = 6.744323e-17   
 +wuc     = 4.925809e-18   puc      = -2.196379e-23  rdsw     = 170            
 +prwb    = 0              prwg     = 0              wr       = 1              
 +u0      = 0.03449046     lu0      = 9.712911e-09   wu0      = 1.004335e-09   
 +pu0     = -1.245541e-15  a0       = 0.5242422      la0      = -4.198011e-07  
 +wa0     = -1.156377e-08  pa0      = 9.501862e-15   keta     = 0.005068241    
 +lketa   = -3.031378e-08  wketa    = -3.148353e-10  pketa    = 4.337169e-16   
 +a1      = 0              a2       = 0.99           ags      = 0.02           
 +b0      = 0              b1       = 0              voff     = -0.1357364     
 +lvoff   = -1.936854e-08  wvoff    = -1.81595e-09   pvoff    = 2.46066e-15    
 +nfactor = 1              cit      = -0.000126513   lcit     = 2.640698e-10   
 +wcit    = -1.427138e-13  pcit     = 1.421443e-18   cdsc     = 0              
 +cdscb   = 0              cdscd    = 0              eta0     = 5e-05          
 +etab    = -5e-05         dsub     = 0              pclm     = 0.7595757      
 +lpclm   = 4.026256e-07   wpclm    = -7.135753e-09  ppclm    = 7.107208e-14   
 +pdiblc1 = 1e-06          pdiblc2  = 0.0003968181   lpdiblc2 = 3.019691e-09   
 +pdiblcb = 0.01           drout    = 0              pscbe1   = 1.736364e+08   
 +lpscbe1 = 262.5818       pscbe2   = 1e-06          pvag     = 0              
 +delta   = 0.01           alpha0   = 6.27411e-08    beta0    = 11.59263       
 +kt1     = -0.2400692     lkt1     = 1.973544e-08   wkt1     = 4.992732e-09   
 +pkt1    = -3.341133e-15  kt2      = -0.03543628    lkt2     = -3.00608e-09   
 +wkt2    = 3.15405e-09    pkt2     = 5.338977e-16   at       = 20000          
 +ute     = -1.574903      lute     = -5.076592e-08  wute     = 2.483101e-08   
 +pute    = -1.624505e-14  ua1      = 1.224e-09      ub1      = -1.457473e-18  
 +lub1    = 2.445644e-25   wub1     = -4.224631e-26  pub1     = 1.983214e-32   
 +uc1     = -7.225825e-11  luc1     = 5.984138e-17   wuc1     = -1.60484e-17   
 +puc1    = 5.300662e-24   kt1l     = 0              prt      = 0              
 +cj      = cjn            pb       = 0.6882682      mj       = 0.3595262      
 +cjsw    = cjswn          pbsw     = 0.6882682      mjsw     = 0.2003879      
 +cjswg   = cjswgn         pbswg    = 0.6882682      mjswg    = 0.43879        
 +cgdo    = cgon           cgso     = cgon           cta      = 0.001040287    
 +ctp     = 0.000645489    pta      = 0.001554306    ptp      = 0.001554306    
 +js      = 8.38e-06       jsw      = 1.6e-11        n        = 1              
 +xti     = 3              capmod   = 0              nqsmod   = 0              
 +xpart   = 1              cf       = 0              tlev     = 1              
 +tlevc   = 1              calcacm  = 1              sfvtflag = 0              
 +vfbflag = 1              dlc      = 3e-9           )


 .model nch.11           nmos   (                    lmin     = '5e-07-dxl'      
 +lmax    = '1.2e-06-dxl'  wmin     = 2.2e-07        wmax     = '6e-07-dxw'      
 +nlev     = 3             af       = 0.8256         kf       = 9.326e-25
 +level   = 49             tnom     = 25             version  = 3.1            
 +tox     = toxn           xj       = 1.6e-07        nch      = 3.9e+17        
 +lln     = 1              lwn      = 1              wln      = 1              
 +wwn     = 1              lint     = 1e-08          ll       = 0              
 +lw      = 0              lwl      = 0              wint     = 1e-08          
 +wl      = 0              ww       = 0              wwl      = 0              
 +mobmod  = 1              binunit  = 2              xl       = '-2e-08+dxl'   
 +xw      = '0+dxw'        dwg      = 0              dwb      = 0              
 +acm     = 12             ldif     = 9e-08          hdif     = hdifn          
 +rsh     = 6.8            rd       = 0              rs       = 0              
 +vth0    = '0.4879968+dvthn' lvth0    = -1.475447e-09  wvth0    = -1.180615e-08  
 +pvth0   = 5.03827e-15    k1       = 0.4182783      lk1      = 6.682436e-08   
 +wk1     = 2.882188e-08   pk1      = -1.744033e-14  k2       = 0.05724643     
 +lk2     = -3.050892e-08  wk2      = -1.589285e-08  pk2      = 6.992215e-15   
 +k3      = 0              dvt0     = 0              dvt1     = 0              
 +dvt2    = 0              dvt0w    = 0              dvt1w    = 0              
 +dvt2w   = 0              nlx      = 0              w0       = 0              
 +k3b     = 0              vsat     = 86745.34       lvsat    = -0.0007872646  
 +wvsat   = 0.0005288439   pvsat    = 1.448774e-11   ua       = -7.371595e-10  
 +lua     = 6.111558e-17   wua      = -8.878959e-19  pua      = -1.646058e-24  
 +ub      = 2.570856e-18   lub      = -2.952486e-25  wub      = -4.720896e-26  
 +pub     = -2.445921e-33  uc       = 1.484849e-10   luc      = -2.806833e-17  
 +wuc     = -8.694588e-18  puc      = -6.164128e-24  rdsw     = 170            
 +prwb    = 0              prwg     = 0              wr       = 1              
 +u0      = 0.04425179     lu0      = -1.610234e-09  wu0      = -8.637309e-10  
 +pu0     = 9.214146e-16   a0       = -0.08643652    la0      = 2.885862e-07   
 +wa0     = -5.995313e-08  pa0      = 6.563351e-14   keta     = -0.0159613     
 +lketa   = -5.919509e-09  wketa    = -2.401372e-09  pketa    = 2.854099e-15   
 +a1      = 0              a2       = 0.99           ags      = 0.02           
 +b0      = 0              b1       = 0              voff     = -0.169209      
 +lvoff   = 1.945972e-08   wvoff    = 1.388564e-09   pvoff    = -1.256577e-15  
 +nfactor = 1              cit      = -0.000160979   lcit     = 3.040503e-10   
 +wcit    = 1.794118e-12   pcit     = -8.252955e-19  cdsc     = 0              
 +cdscb   = 0              cdscd    = 0              eta0     = 1.714286e-05   
 +leta0   = 3.811428e-11   etab     = -1.714286e-05  letab    = -3.811428e-11  
 +dsub    = 0              pclm     = 0.9751641      lpclm    = 1.525431e-07   
 +wpclm   = 1.606201e-08   ppclm    = 4.416267e-14   pdiblc1  = 1e-06          
 +pdiblc2 = 0.001663438    lpdiblc2 = 1.550412e-09   wpdiblc2 = -3.682228e-10  
 +ppdiblc2= 4.271384e-16   pdiblcb  = 0.01           drout    = 0              
 +pscbe1  = 4e+08          pscbe2   = 1e-06          pvag     = 0              
 +delta   = 0.01           alpha0   = 6.27411e-08    beta0    = 11.59263       
 +kt1     = -0.2410275     lkt1     = 2.084706e-08   wkt1     = 1.123407e-08   
 +pkt1    = -1.058109e-14  kt2      = -0.04000202    lkt2     = 2.290172e-09   
 +wkt2    = 4.755906e-09   pkt2     = -1.324255e-15  at       = 20000          
 +ute     = -1.473219      lute     = -1.687192e-07  wute     = 1.794131e-08   
 +pute    = -8.253005e-15  ua1      = 1.224e-09      ub1      = -5.006146e-19  
 +lub1    = -8.653909e-25  wub1     = -9.602595e-26  pub1     = 8.221649e-32   
 +uc1     = 4.363964e-11   luc1     = -7.460019e-17  wuc1     = -3.669539e-17  
 +puc1    = 2.925118e-23   kt1l     = 0              prt      = 0              
 +cj      = cjn            pb       = 0.6882682      mj       = 0.3595262      
 +cjsw    = cjswn          pbsw     = 0.6882682      mjsw     = 0.2003879      
 +cjswg   = cjswgn         pbswg    = 0.6882682      mjswg    = 0.43879        
 +cgdo    = cgon           cgso     = cgon           cta      = 0.001040287    
 +ctp     = 0.000645489    pta      = 0.001554306    ptp      = 0.001554306    
 +js      = 8.38e-06       jsw      = 1.6e-11        n        = 1              
 +xti     = 3              capmod   = 0              nqsmod   = 0              
 +xpart   = 1              cf       = 0              tlev     = 1              
 +tlevc   = 1              calcacm  = 1              sfvtflag = 0              
 +vfbflag = 1              dlc      = 3e-9        )


 .model nch.12           nmos   (                    lmin     = 1.8e-07        
 +lmax    = '5e-07-dxl'    wmin     = 2.2e-07        wmax     = '6e-07-dxw'      
 +nlev     = 3             af       = 0.8256         kf       = 9.326e-25
 +level   = 49             tnom     = 25             version  = 3.1            
 +tox     = toxn           xj       = 1.6e-07        nch      = 3.9e+17        
 +lln     = 1              lwn      = 1              wln      = 1              
 +wwn     = 1              lint     = 1e-08          ll       = 0              
 +lw      = 0              lwl      = 0              wint     = 1e-08          
 +wl      = 0              ww       = 0              wwl      = 0              
 +mobmod  = 1              binunit  = 2              xl       = '-2e-08+dxl'   
 +xw      = '0+dxw'        dwg      = 0              dwb      = 0              
 +acm     = 3             ldif     = 9e-08          hdif     = hdifn          
 +rsh     = 6.8            rd       = 0              rs       = 0              
 +vth0    = '0.4736658+dvthn' lvth0    = 5.116823e-09   wvth0    = -2.546044e-09  
 +pvth0   = 7.786215e-16   k1       = 0.4916317      lk1      = 3.308183e-08   
 +wk1     = -1.814856e-08  pk1      = 4.166068e-15   k2       = 0.0241211      
 +lk2     = -1.527126e-08  wk2      = 4.133682e-09   pk2      = -2.219989e-15  
 +k3      = 0              dvt0     = 0              dvt1     = 0              
 +dvt2    = 0              dvt0w    = 0              dvt1w    = 0              
 +dvt2w   = 0              nlx      = 0              w0       = 0              
 +k3b     = 0              vsat     = 85478.73       lvsat    = -0.0002046202  
 +wvsat   = 0.0005357541   pvsat    = 1.130901e-11   ua       = -6.551957e-10  
 +lua     = 2.341229e-17   wua      = 4.278126e-17   pua      = -2.173387e-23  
 +ub      = 2.115113e-18   lub      = -8.560682e-26  wub      = -1.030253e-25  
 +pub     = 2.322958e-32   uc       = 1.210543e-10   luc      = -1.545024e-17  
 +wuc     = -2.887305e-17  puc      = 3.117964e-24   rdsw     = 170            
 +prwb    = 0              prwg     = 0              wr       = 1              
 +u0      = 0.03727462     lu0      = 1.599263e-09   wu0      = 1.173359e-09   
 +pu0     = -1.564659e-17  a0       = 0.3091393      la0      = 1.066214e-07   
 +wa0     = 2.629372e-07   pa0      = -8.289604e-14  keta     = -0.02983288    
 +lketa   = 4.61416e-10    wketa    = 4.190313e-09   pketa    = -1.780756e-16  
 +a1      = 0              a2       = 0.99           ags      = 0.05334493     
 +lags    = -1.533867e-08  wags     = -1.000348e-08  pags     = 4.601601e-15   
 +b0      = 0              b1       = 0              voff     = -0.1182942     
 +lvoff   = -3.96108e-09   wvoff    = -3.621182e-10  pvoff    = -4.512629e-16  
 +nfactor = 1              cit      = 0.0002910191   lcit     = 9.613119e-11   
 +wcit    = -2.500833e-12  pcit     = 1.150396e-18   cdsc     = 0              
 +cdscb   = 0              cdscd    = 0              eta0     = -0.0002621952  
 +leta0   = 1.666098e-10   etab     = 0.00134878     letab    = -6.66439e-10   
 +dsub    = 0              pclm     = 1.151922       lpclm    = 7.123444e-08   
 +wpclm   = 1.124212e-07   ppclm    = -1.625715e-16  pdiblc1  = 1e-06          
 +pdiblc2 = -0.00702563    lpdiblc2 = 5.547383e-09   wpdiblc2 = 7.858404e-10   
 +ppdiblc2= -1.037308e-16  pdiblcb  = 0.01           drout    = 0              
 +pscbe1  = 4e+08          pscbe2   = 1e-06          pvag     = 0              
 +delta   = 0.01           alpha0   = 6.27411e-08    beta0    = 11.59263       
 +kt1     = -0.1956458     lkt1     = -2.850022e-11  wkt1     = -1.855012e-08  
 +pkt1    = 3.119642e-15   kt2      = -0.03908098    lkt2     = 1.866495e-09   
 +wkt2    = 2.045007e-09   pkt2     = -7.724148e-17  at       = 20000          
 +ute     = -1.944663      lute     = 4.814495e-08   wute     = 1.328912e-08   
 +pute    = -6.112999e-15  ua1      = 1.224e-09      ub1      = -3.081556e-18  
 +lub1    = 3.21842e-25    wub1     = 1.455128e-25   pub1     = -2.889132e-32  
 +uc1     = -2.392738e-10  luc1     = 5.554002e-17   wuc1     = 4.98122e-17    
 +puc1    = -1.054232e-23  kt1l     = 0              prt      = 0              
 +cj      = cjn            pb       = 0.6882682      mj       = 0.3595262      
 +cjsw    = cjswn          pbsw     = 0.6882682      mjsw     = 0.2003879      
 +cjswg   = cjswgn         pbswg    = 0.6882682      mjswg    = 0.43879        
 +cgdo    = cgon           cgso     = cgon           cta      = 0.001040287    
 +ctp     = 0.000645489    pta      = 0.001554306    ptp      = 0.001554306    
 +js      = 8.38e-06       jsw      = 1.6e-11        n        = 1              
 +xti     = 3              capmod   = 0              nqsmod   = 0              
 +xpart   = 1              cf       = 0              tlev     = 1              
 +tlevc   = 1              calcacm  = 1              sfvtflag = 0              
 +vfbflag = 1              dlc      = 3e-9   )


 .model pch.1            pmos   (                    lmin     = '1.2e-06-dxl'    
 +lmax    = 2.1e-05        wmin     = '1.01e-05-dxw' wmax     = 0.000101       
 +nlev    = 3              af       = 1.252          kf      = 9.267e-24
 +level   = 49             tnom     = 25             version  = 3.1            
 +tox     = toxp           xj       = 1.7e-07        nch      = 3.9e+17        
 +lln     = 1              lwn      = 1              wln      = 1              
 +wwn     = 1              lint     = 1.5e-08        ll       = 0              
 +lw      = 0              lwl      = 0              wint     = 1.5e-08        
 +wl      = 0              ww       = 0              wwl      = 0              
 +mobmod  = 1              binunit  = 2              xl       = '-2e-08+dxl'   
 +xw      = '0+dxw'        dwg      = 0              dwb      = 0              
 +acm     = 12             ldif     = 9e-08          hdif     = hdifp          
 +rsh     = 7.2            rd       = 0              rs       = 0              
 +vth0    = '-0.4379811+dvthp' lvth0    = -2.157551e-08  wvth0    = 1.993098e-08   
 +pvth0   = -3.253912e-14  k1       = 0.5232846      lk1      = 1.902614e-08   
 +wk1     = 1.2434e-07     pk1      = -2.513947e-15  k2       = 0.03910666     
 +lk2     = -5.042024e-09  wk2      = -3.541453e-08  pk2      = -4.457568e-15  
 +k3      = 0              dvt0     = 0              dvt1     = 0              
 +dvt2    = 0              dvt0w    = 0              dvt1w    = 0              
 +dvt2w   = 0              nlx      = 0              w0       = 0              
 +k3b     = 0              vsat     = 151306.8       lvsat    = -0.01300284    
 +ua      = 8.542461e-10   lua      = -4.102831e-17  wua      = 8.143675e-17   
 +pua     = -3.518285e-21  ub       = 5.261967e-19   lub      = -6.282183e-26  
 +wub     = 1.155279e-24   pub      = 5.160992e-30   uc       = -9.947074e-11  
 +luc     = -1.021336e-17  wuc      = 1.107944e-16   puc      = 3.027899e-22   
 +rdsw    = 530            prwb     = 0              prwg     = 0              
 +wr      = 1              u0       = 0.01091231     lu0      = -1.271836e-09  
 +wu0     = 8.47784e-10    pu0      = -2.243951e-16  a0       = 0.9876606      
 +la0     = 1.192363e-07   wa0      = 5.132671e-07   pa0      = -4.412657e-13  
 +keta    = 0.02612185     lketa    = -1.707487e-09  wketa    = 7.135232e-09   
 +pketa   = -3.335716e-15  a1       = 0              a2       = 0.4            
 +ags     = 0.02           b0       = 0              b1       = 0              
 +voff    = -0.1293096     lvoff    = -7.007391e-10  wvoff    = 1.923288e-08   
 +pvoff   = -1.21129e-14   nfactor  = 1              cit      = -0.0001        
 +cdsc    = 0              cdscb    = 0              cdscd    = 0              
 +eta0    = 5e-05          etab     = -5e-05         dsub     = 0              
 +pclm    = 0.5738637      lpclm    = 2.600568e-07   pdiblc1  = 1e-06   
 +pdiblc2 = 0.000477273    lpdiblc2 = 5.201136e-09   pdiblcb  = 0.01           
 +drout   = 0              pscbe1   = 1.803977e+08   lpscbe1  = 195.0426       
 +pscbe2  = 5e-07          pvag     = 0              delta    = 0.01           
 +alpha0  = 8.934959e-07   beta0    = 22.67827       kt1      = -0.2295955     
 +lkt1    = -1.534336e-08  kt2      = -0.02403249    lkt2     = -3.075286e-09  
 +at      = 10000          ute      = -0.8386704     lute     = 9.622102e-08   
 +ua1     = 1.224e-09      ub1      = -1.397786e-18  lub1     = 4.807877e-26   
 +uc1     = -6.721975e-12  luc1     = 2.087204e-17   kt1l     = 0              
 +prt     = 0              cj       = cjp            pb       = 0.895226       
 +mj      = 0.4476         cjsw     = cjswp          pbsw     = 0.895226       
 +mjsw    = 0.3683619      cjswg    = cjswgp         pbswg    = 0.895226       
 +mjswg   = 0.3683619      cgdo     = cgop           cgso     = cgop           
 +cta     = 0.0009739001   ctp      = 0.0004130718   pta      = 0.001572025    
 +ptp     = 0.001572025    js       = 4.92e-06       jsw      = 9e-10          
 +n       = 1              xti      = 3              capmod   = 0              
 +nqsmod  = 0              xpart    = 1              cf       = 0              
 +tlev    = 1              tlevc    = 1              calcacm  = 1              
 +sfvtflag= 0              vfbflag  = 1              dlc      = 2e-9  )


 .model pch.2            pmos   (                    lmin     = '5e-07-dxl'      
 +lmax    = '1.2e-06-dxl'  wmin     = '1.01e-05-dxw' wmax     = 0.000101       
 +nlev    = 3              af       = 1.252          kf      = 9.267e-24
 +level   = 49             tnom     = 25             version  = 3.1            
 +tox     = toxp           xj       = 1.7e-07        nch      = 3.9e+17        
 +lln     = 1              lwn      = 1              wln      = 1              
 +wwn     = 1              lint     = 1.5e-08        ll       = 0              
 +lw      = 0              lwl      = 0              wint     = 1.5e-08        
 +wl      = 0              ww       = 0              wwl      = 0              
 +mobmod  = 1              binunit  = 2              xl       = '-2e-08+dxl'   
 +xw      = '0+dxw'        dwg      = 0              dwb      = 0              
 +acm     = 12             ldif     = 9e-08          hdif     = hdifp          
 +rsh     = 7.2            rd       = 0              rs       = 0              
 +vth0    = '-0.4469995+dvthp' lvth0    = -1.120441e-08  wvth0    = -4.790911e-08  
 +pvth0   = 4.5477e-14     k1       = 0.5344138      lk1      = 6.227659e-09   
 +wk1     = 6.223506e-08   pk1      = 6.890672e-14   k2       = 0.03583825     
 +lk2     = -1.283352e-09  wk2      = -9.515445e-09  pk2      = -3.424151e-14  
 +k3      = 0              dvt0     = 0              dvt1     = 0              
 +dvt2    = 0              dvt0w    = 0              dvt1w    = 0              
 +dvt2w   = 0              nlx      = 0              w0       = 0              
 +k3b     = 0              vsat     = 146428.6       lvsat    = -0.007392862   
 +ua      = 8.910204e-10   lua      = -8.331874e-17  wua      = -3.674354e-15  
 +pua     = 8.008744e-22   ub       = 3.976959e-19   lub      = 8.495415e-26   
 +wub     = 7.818968e-24   pub      = -2.502251e-30  uc       = -1.224148e-10  
 +luc     = 1.617235e-17   wuc      = 7.976175e-16   puc      = -4.870566e-22  
 +rdsw    = 530            prwb     = 0              prwg     = 0              
 +wr      = 1              u0       = 0.01004072     lu0      = -2.69502e-10   
 +wu0     = 1.856901e-09   pu0      = -1.38488e-15   a0       = 1.023592       
 +la0     = 7.791549e-08   wa0      = -1.932599e-07  pa0      = 3.712404e-13   
 +keta    = 0.03089782     lketa    = -7.199843e-09  wketa    = 1.264146e-08   
 +pketa   = -9.667874e-15  a1       = 0              a2       = 0.4            
 +ags     = 0.02           b0       = 0              b1       = 0              
 +voff    = -0.1293548     lvoff    = -6.487139e-10  wvoff    = 1.137041e-08   
 +pvoff   = -3.071056e-15  nfactor  = 1              cit      = -0.0003062223  
 +lcit    = 2.371556e-10   wcit     = 1.151661e-10   pcit     = -1.324412e-16  
 +cdsc    = 0              cdscb    = 0              cdscd    = 0              
 +eta0    = 1.785714e-05   leta0    = 3.696428e-11   etab     = -1.785714e-05  
 +letab   = -3.696428e-11  dsub     = 0              pclm     = 0.6714286      
 +lpclm   = 1.478571e-07   pdiblc1  = 1e-06          pdiblc2  = 0.001785714    
 +lpdiblc2= 3.696428e-09   pdiblcb  = 0.01           drout    = 0              
 +pscbe1  = 3.5e+08        pscbe2   = 5e-07          pvag     = 0              
 +delta   = 0.01           alpha0   = 8.934959e-07   beta0    = 22.67827       
 +kt1     = -0.2443071     lkt1     = 1.574977e-09   kt2      = -0.02755304    
 +lkt2    = 9.733445e-10   at       = 10000          ute      = -0.7721764     
 +lute    = 1.97529e-08    wute     = -1.467434e-07  pute     = 1.687549e-13   
 +ua1     = 1.224e-09      ub1      = -1.382905e-18  lub1     = 3.096568e-26   
 +uc1     = -1.449268e-11  luc1     = 2.980835e-17   kt1l     = 0              
 +prt     = 0              cj       = cjp            pb       = 0.895226       
 +mj      = 0.4476         cjsw     = cjswp          pbsw     = 0.895226       
 +mjsw    = 0.3683619      cjswg    = cjswgp         pbswg    = 0.895226       
 +mjswg   = 0.3683619      cgdo     = cgop           cgso     = cgop           
 +cta     = 0.0009739001   ctp      = 0.0004130718   pta      = 0.001572025    
 +ptp     = 0.001572025    js       = 4.92e-06       jsw      = 9e-10          
 +n       = 1              xti      = 3              capmod   = 0              
 +nqsmod  = 0              xpart    = 1              cf       = 0              
 +tlev    = 1              tlevc    = 1              calcacm  = 1              
 +sfvtflag= 0              vfbflag  = 1              dlc      = 2e-9  )


 .model pch.3            pmos   (                    lmin     = 1.8e-07        
 +lmax    = '5e-07-dxl'    wmin     = '1.01e-05-dxw' wmax     = 0.000101       
 +nlev    = 3              af       = 1.252          kf       = 9.267e-24
 +level   = 49             tnom     = 25             version  = 3.1            
 +tox     = toxp           xj       = 1.7e-07        nch      = 3.9e+17        
 +lln     = 1              lwn      = 1              wln      = 1              
 +wwn     = 1              lint     = 1.5e-08        ll       = 0              
 +lw      = 0              lwl      = 0              wint     = 1.5e-08        
 +wl      = 0              ww       = 0              wwl      = 0              
 +mobmod  = 1              binunit  = 2              xl       = '-2e-08+dxl'   
 +xw      = '0+dxw'        dwg      = 0              dwb      = 0              
 +acm     = 12             ldif     = 9e-08          hdif     = hdifp          
 +rsh     = 7.2            rd       = 0              rs       = 0              
 +vth0    = '-0.4550796+dvthp' lvth0    = -7.568369e-09  wvth0    = 6.81538e-08    
 +pvth0   = -6.751318e-15  k1       = 0.5074729      lk1      = 1.835105e-08   
 +wk1     = 2.494346e-07   pk1      = -1.533307e-14  k2       = 0.04798815     
 +lk2     = -6.750804e-09  wk2      = -1.04983e-07   pk2      = 8.71888e-15    
 +k3      = 0              dvt0     = 0              dvt1     = 0              
 +dvt2    = 0              dvt0w    = 0              dvt1w    = 0              
 +dvt2w   = 0              nlx      = 0              w0       = 0              
 +k3b     = 0              vsat     = 130812.5       lvsat    = -0.0003656236  
 +ua      = 1.080984e-09   lua      = -1.688024e-16  wua      = -2.087708e-15  
 +pua     = 8.688397e-23   ub       = 1.740202e-19   lub      = 1.856082e-25   
 +wub     = 3.67887e-24    pub      = -6.392069e-31  uc       = -1.457954e-10  
 +luc     = 2.66936e-17    wuc      = -1.016314e-16  puc      = -8.239455e-23  
 +rdsw    = 530            prwb     = 0              prwg     = 0              
 +wr      = 1              u0       = 0.009606076    lu0      = -7.391318e-11  
 +wu0     = -6.536676e-10  pu0      = -2.551239e-16  a0       = 1.233097       
 +la0     = -1.636207e-08  wa0      = -9.402152e-08  pa0      = 3.265831e-13   
 +keta    = 0.01660392     lketa    = -7.675898e-10  wketa    = -7.484155e-09  
 +pketa   = -6.113507e-16  a1       = 0              a2       = 0.4            
 +ags     = 0.02           b0       = 0              b1       = 0              
 +voff    = -0.1262417     lvoff    = -2.049622e-09  wvoff    = -4.056333e-08  
 +pvoff   = 2.029913e-14   nfactor  = 1              cit      = -0.0001049554  
 +lcit    = 1.465856e-10   wcit     = 6.463967e-10   pcit     = -3.714952e-16  
 +cdsc    = 0              cdscb    = 0              cdscd    = 0              
 +eta0    = -0.0004687502  leta0    = 2.559375e-10   etab     = 0.001078125    
 +letab   = -5.301563e-10  dsub     = 0              pclm     = 0.9197022      
 +lpclm   = 3.613398e-08   wpclm    = -9.529438e-08  ppclm    = 4.288248e-14   
 +pdiblc1 = 1e-06          pdiblc2  = 0.005710225    lpdiblc2 = 1.930398e-09   
 +wpdiblc2= 2.274334e-08   ppdiblc2 = -1.02345e-14   pdiblcb  = 0.01           
 +drout   = 0              pscbe1   = 3.5e+08        pscbe2   = 5e-07          
 +pvag    = 0              delta    = 0.01           alpha0   = 8.934959e-07   
 +beta0   = 22.67827       kt1      = -0.2348893     lkt1     = -2.662992e-09  
 +kt2     = -0.02487671    lkt2     = -2.310046e-10  at       = 10000          
 +ute     = -0.7355645     lute     = 3.277554e-09   wute     = 2.660134e-07   
 +pute    = -1.698563e-14  ua1      = 1.224e-09      ub1      = -1.378107e-18  
 +lub1    = 2.880672e-26   uc1      = 6.698567e-11   luc1     = -6.856913e-18  
 +kt1l    = 0              prt      = 0              cj       = cjp            
 +pb      = 0.895226       mj       = 0.4476         cjsw     = cjswp          
 +pbsw    = 0.895226       mjsw     = 0.3683619      cjswg    = cjswgp         
 +pbswg   = 0.895226       mjswg    = 0.3683619      cgdo     = cgop           
 +cgso    = cgop           cta      = 0.0009739001   ctp      = 0.0004130718   
 +pta     = 0.001572025    ptp      = 0.001572025    js       = 4.92e-06       
 +jsw     = 9e-10          n        = 1              xti      = 3              
 +capmod  = 0              nqsmod   = 0              xpart    = 1              
 +cf      = 0              tlev     = 1              tlevc    = 1              
 +calcacm = 1              sfvtflag = 0              vfbflag  = 1 
 +dlc     = 2e-9             )


 .model pch.4            pmos   (                    lmin     = '1.2e-06-dxl'   
 +lmax    = 2.1e-05        wmin     = '1.3e-06-dxw'  wmax     = '1.01e-05-dxw'   
 +nlev    = 3              af       = 1.252          kf       = 9.267e-24
 +level   = 49             tnom     = 25             version  = 3.1            
 +tox     = toxp           xj       = 1.7e-07        nch      = 3.9e+17        
 +lln     = 1              lwn      = 1              wln      = 1              
 +wwn     = 1              lint     = 1.5e-08        ll       = 0              
 +lw      = 0              lwl      = 0              wint     = 1.5e-08        
 +wl      = 0              ww       = 0              wwl      = 0              
 +mobmod  = 1              binunit  = 2              xl       = '-2e-08+dxl'   
 +xw      = '0+dxw'        dwg      = 0              dwb      = 0              
 +acm     = 12             ldif     = 9e-08          hdif     = hdifp          
 +rsh     = 7.2            rd       = 0              rs       = 0              
 +vth0    = '-0.4374633+dvthp' lvth0    = -2.408414e-08  wvth0    = 1.471636e-08   
 +pvth0   = -7.277214e-15  k1       = 0.5343876      lk1      = 1.806018e-08   
 +wk1     = 1.253323e-08   pk1      = 7.213184e-15   k2       = 0.03616726     
 +lk2     = -5.236313e-09  wk2      = -5.814751e-09  pk2      = -2.50107e-15   
 +k3      = 0              dvt0     = 0              dvt1     = 0              
 +dvt2    = 0              dvt0w    = 0              dvt1w    = 0              
 +dvt2w   = 0              nlx      = 0              w0       = 0              
 +k3b     = 0              vsat     = 151306.8       lvsat    = -0.01300284    
 +ua      = 8.425718e-10   lua      = -3.904175e-16  wua      = 1.989964e-16   
 +pua     = 6.452796e-26   ub       = 7.128847e-19   lub      = 4.125238e-25   
 +wub     = -7.246685e-25  pub      = 3.742612e-31   uc       = -8.017901e-11  
 +luc     = 1.802016e-17   wuc      = -8.347328e-17  puc      = 1.847838e-23   
 +rdsw    = 530            prwb     = 0              prwg     = 0              
 +wr      = 1              u0       = 0.01112962     lu0      = -1.309183e-09  
 +wu0     = -1.340516e-09  pu0      = 1.516926e-16   a0       = 1.044546       
 +la0     = 6.895549e-08   wa0      = -5.956933e-08  pa0      = 6.50618e-14    
 +keta    = 0.0260897      lketa    = -1.288132e-09  wketa    = 7.459047e-09   
 +pketa   = -7.558624e-15  a1       = 0              a2       = 0.4            
 +ags     = 0.02           b0       = 0              b1       = 0              
 +voff    = -0.1273455     lvoff    = -1.352654e-09  wvoff    = -5.45451e-10   
 +pvoff   = -5.548117e-15  nfactor  = 1              cit      = -0.0001        
 +cdsc    = 0              cdscb    = 0              cdscd    = 0              
 +eta0    = 5e-05          etab     = -5e-05         dsub     = 0              
 +pclm    = 0.5738637      lpclm    = 2.600568e-07   pdiblc1  = 1e-06          
 +pdiblc2 = 0.000477273    lpdiblc2 = 5.201136e-09   pdiblcb  = 0.01           
 +drout   = 0              pscbe1   = 1.803977e+08   lpscbe1  = 195.0426       
 +pscbe2  = 5e-07          pvag     = 0              delta    = 0.01           
 +alpha0  = 8.934959e-07   beta0    = 22.67827       kt1      = -0.2303        
 +lkt1    = -1.635442e-08  wkt1     = 7.095216e-09   pkt1     = 1.018142e-14   
 +kt2     = -0.02416969    lkt2     = -3.344287e-09  wkt2     = 1.381573e-09   
 +pkt2    = 2.70884e-15    at       = 10000          ute      = -0.8501847     
 +lute    = 9.734694e-08   wute     = 1.159489e-07   pute     = -1.133805e-14  
 +ua1     = 1.224e-09      ub1      = -1.405289e-18  lub1     = 5.362257e-26   
 +wub1    = 7.555995e-26   pub1     = -5.582602e-32  uc1      = -9.419797e-12  
 +luc1    = 1.833659e-17   wuc1     = 2.716705e-17   puc1     = 2.553191e-23   
 +kt1l    = 0              prt      = 0              cj       = cjp            
 +pb      = 0.895226       mj       = 0.4476         cjsw     = cjswp          
 +pbsw    = 0.895226       mjsw     = 0.3683619      cjswg    = cjswgp         
 +pbswg   = 0.895226       mjswg    = 0.3683619      cgdo     = cgop           
 +cgso    = cgop           cta      = 0.0009739001   ctp      = 0.0004130718   
 +pta     = 0.001572025    ptp      = 0.001572025    js       = 4.92e-06       
 +jsw     = 9e-10          n        = 1              xti      = 3              
 +capmod  = 0              nqsmod   = 0              xpart    = 1              
 +cf      = 0              tlev     = 1              tlevc    = 1              
 +calcacm = 1              sfvtflag = 0              vfbflag  = 1 
 +dlc     = 2e-9             )


 .model pch.5            pmos   (                    lmin     = '5e-07-dxl'      
 +lmax    = '1.2e-06-dxl'  wmin     = '1.3e-06-dxw'  wmax     = '1.01e-05-dxw'   
 +nlev    = 3              af       = 1.252          kf       = 9.267e-24
[...]
         wmin=   1.3e-006 meter          wmax=  1.01e-005 meter   
         lref=          0 meter          wref=          0 meter   
         lint=     1e-008 meter          wint=     1e-008 meter   
        lmult=          1               wmult=          1         
           ll=          0                 lln=          1         
           lw=          0                 lwn=          1         
          lwl=          0                  wl=          0         
          wln=          1                  ww=          0         
          wwn=          1                 wwl=          0         
          dwg=          0 m/V             dwb=          0 m/V^1/2 
           a0=   0.407541                 ags=       0.02 V^-1    
           b0=          0 meter            b1=          0 meter   
         keta=   0.015009 V^-1           voff=  -0.139584 V       
        ngate=          0 cm^-3           vbx=          0 V       
          vbm=         -3 V                xt=  1.55e-007 meter   
         vth0=   0.530355 V               nch=   3.9e+017 cm^-3   
         nsub=     6e+016 cm^-3           nlx=          0 meter   
       gamma1=          0 V^-1/2       gamma2=          0 V^-1/2  
           k1=   0.507912 V^1/2            k2=  0.0174958         
           k3=          0                 k3b=          0 V^-1    
           w0=          0 meter          dvt0=          0         
         dvt1=          0                dvt2=          0 V^-1    
        dvt0w=          0 meter^-1      dvt1w=          0 meter^-1
        dvt2w=          0 V^-1           dsub=          0         
         eta0=     5e-005                etab=    -5e-005 V^-1    
           u0=    0.04281 m^2/V/sec         ua=-5.3347e-010 m/V     
           ub=2.25249e-018 (m/V)^2          uc=1.0653e-010 V^-1    
         vsat=    90678.3 m/sec            a1=          0 v^-1    
           a2=       0.99               delta=       0.01 V       
         rdsw=        170 ohm-um         prwg=          0 V^-1    
         prwb=          0 V^-1/2           wr=          1         
         pclm=   0.775554             pdiblc1=     1e-006         
      pdiblc2=0.000396818             pdiblcb=       0.01 V^-1    
       pscbe1=1.73636e+008 V/m          pscbe2=     1e-006 V/m     
        drout=          0                pvag=          0         
      nfactor=          1                cdsc=          0 f/m^2   
        cdscb=          0 f/V/m^2       cdscd=          0 f/V/m^2 
          cit=-0.000126759 f/m^2        alpha0=6.27411e-008 m/V     
        beta0=    11.5926 V               dlc=     3e-009 meter   
          dwc=     1e-008 meter           clc=     1e-007 meter   
          cle=        0.6                cgso= 3.665e-010 f/m     
         cgdo= 3.665e-010 f/m            cgbo=1.69271e-010 f/m     
         cgsl=          0 f/m            cgdl=          0 f/m     
       ckappa=        0.6                  cf=          0 f/m     
      vfbflag=          1               vfbcv=           Vfb      
         tnom=     298.15 K               kt1=  -0.223115 V       
         kt1l=          0                 kt2= -0.0305007         
          ute=   -1.58058                 ua1= 1.224e-009 m/V     
          ub1=-1.05944e-018 (m/V)^2         uc1=2.59445e-011 m/V^2   
           at=      20000 m/s             prt=          0         
          using Hspice noise model           nlev=          3         
           af=     0.8256                  kf= 9.326e-025         
       gdsnoi=-1.23457e-029         
          using Berkeley diodes          using ACM 
          acm=        12                 hdif=    2e-007 meter    
         ldif=    9e-008 meter             js= 8.38e-006 amp/m^2  
          jsw=  1.6e-011 amp/m            xti=         3          
           nj=         1                   cj=0.00105028 f/m^2    
           mj=  0.359526                   pb=  0.688268 V        
         cjsw=2.14257e-010 f/m             mjsw=  0.200388          
          php (not used)                  pbsw=  0.688268 V        
       cjgate (not used)                 cjswg=3.50757e-010 f/m      
        mjswg=   0.43879                pbswg=  0.688268 V        
          la0=-3.61042e-007               lketa=-4.53678e-008         
        lvoff=-1.09134e-008               lvth0=6.06354e-008         
          lk1=1.70801e-008                 lk2=-1.2157e-008         
          lu0=3.0504e-009                 lua=-5.09795e-016         
          lub=7.9265e-025                 luc=3.98812e-017         
        lvsat=-0.00675551               lpclm=2.43485e-007         
     lpdiblc2=3.01969e-009             lpscbe1=    262.582         
         lcit=2.6652e-010                lkt1=-3.90589e-010         
         lkt2=4.54316e-010                lute=5.72905e-009         
         lub1=-4.51878e-026                luc1=-7.81201e-018         
          wa0=-2.35534e-008               wketa=-1.40452e-008         
        wvoff=5.73079e-010               wvth0=1.15158e-009         
          wk1=4.81175e-008                 wk2=-1.57901e-008         
          wu0=-9.3525e-009                 wua=-3.21207e-016         
          wub=-1.29581e-025                 wuc=-1.67947e-017         
        wvsat=-0.000193269               wpclm=-1.93269e-008         
         wkt1=-9.2962e-009                wkt2=2.3453e-009         
         wute=5.79808e-009                wub1=-6.14188e-025         
         wuc1=-1.42799e-016                 pa0=1.14095e-013         
        pketa=2.1557e-014               pvoff=4.41203e-015         
        pvth0=-2.25228e-016                 pk1=-2.16689e-014         
          pk2=1.04155e-014                 pu0=2.40929e-015         
          pua=4.53824e-022                 pub=-5.49724e-031         
          puc=-8.95844e-024               pvsat=1.92496e-009         
        ppclm=1.92496e-013                pkt1=3.93713e-015         
         pkt2=-4.5795e-015                pute=-5.77488e-014         
         pub1=4.55493e-031                puc1=7.87451e-023         
 ***************************************************************************
 ***        model parameters  model name:   0:nch.1    model type:nmos   ***
 ***************************************************************************

   *** general parameters ***
    deriv=   0.           

   ***  level 49  model parameters  ***

       hspver=    2006.03               level=         49         
      version=        3.1            paramchk=          0         
       apwarn=          1                lite=          0         
       vgslim=          0             binUnit=          2         
       capMod=          0               xpart=          1         
       mobMod=          1              nqsMod=          0         
       stiMod=          0                 elm=          5         
     sfvtflag=          0                 tox=  4.08e-009 meter   
           xj=   1.6e-007 meter       binflag=          0         
         lmin=   1.2e-006 meter          lmax=   2.1e-005 meter   
         wmin=  1.01e-005 meter          wmax=   0.000101 meter   
         lref=          0 meter          wref=          0 meter   
         lint=     1e-008 meter          wint=     1e-008 meter   
        lmult=          1               wmult=          1         
           ll=          0                 lln=          1         
           lw=          0                 lwn=          1         
          lwl=          0                  wl=          0         
          wln=          1                  ww=          0         
          wwn=          1                 wwl=          0         
          dwg=          0 m/V             dwb=          0 m/V^1/2 
           a0=   0.211948                 ags=       0.02 V^-1    
           b0=          0 meter            b1=          0 meter   
         keta= -0.0059878 V^-1           voff=  -0.149867 V       
        ngate=          0 cm^-3           vbx=          0 V       
          vbm=         -3 V                xt=  1.55e-007 meter   
         vth0=     0.5452 V               nch=   3.9e+017 cm^-3   
         nsub=     6e+016 cm^-3           nlx=          0 meter   
       gamma1=          0 V^-1/2       gamma2=          0 V^-1/2  
           k1=   0.509941 V^1/2            k2=  0.0169561         
           k3=          0                 k3b=          0 V^-1    
           w0=          0 meter          dvt0=          0         
         dvt1=          0                dvt2=          0 V^-1    
        dvt0w=          0 meter^-1      dvt1w=          0 meter^-1
        dvt2w=          0 V^-1           dsub=          0         
         eta0=     5e-005                etab=    -5e-005 V^-1    
           u0=  0.0459056 m^2/V/sec         ua=-7.46933e-010 m/V     
           ub=2.91067e-018 (m/V)^2          uc=1.6413e-010 V^-1    
         vsat=    90659.1 m/sec            a1=          0 v^-1    
           a2=       0.99               delta=       0.01 V       
         rdsw=        170 ohm-um         prwg=          0 V^-1    
         prwb=          0 V^-1/2           wr=          1         
         pclm=   0.773636             pdiblc1=     1e-006         
      pdiblc2=0.000396818             pdiblcb=       0.01 V^-1    
       pscbe1=1.73636e+008 V/m          pscbe2=     1e-006 V/m     
        drout=          0                pvag=          0         
      nfactor=          1                cdsc=          0 f/m^2   
        cdscb=          0 f/V/m^2       cdscd=          0 f/V/m^2 
          cit=-0.000126759 f/m^2        alpha0=6.27411e-008 m/V     
        beta0=    11.5926 V               dlc=     3e-009 meter   
          dwc=     1e-008 meter           clc=     1e-007 meter   
          cle=        0.6                cgso= 3.665e-010 f/m     
         cgdo= 3.665e-010 f/m            cgbo=1.69271e-010 f/m     
         cgsl=          0 f/m            cgdl=          0 f/m     
       ckappa=        0.6                  cf=          0 f/m     
      vfbflag=          1               vfbcv=           Vfb      
         tnom=     298.15 K               kt1=  -0.228104 V       
         kt1l=          0                 kt2= -0.0260329         
          ute=   -1.60664                 ua1= 1.224e-009 m/V     
          ub1=-1.45997e-018 (m/V)^2         uc1=-5.99039e-011 m/V^2   
           at=      20000 m/s             prt=          0         
          using Hspice noise model           nlev=          3         
           af=     0.8256                  kf= 9.326e-025         
       gdsnoi=-1.23457e-029         
          using Berkeley diodes          using ACM 
          acm=        12                 hdif=    2e-007 meter    
         ldif=    9e-008 meter             js= 8.38e-006 amp/m^2  
          jsw=  1.6e-011 amp/m            xti=         3          
           nj=         1                   cj=0.00105028 f/m^2    
           mj=  0.359526                   pb=  0.688268 V        
         cjsw=2.14257e-010 f/m             mjsw=  0.200388          
          php (not used)                  pbsw=  0.688268 V        
       cjgate (not used)                 cjswg=3.50757e-010 f/m      
        mjswg=   0.43879                pbswg=  0.688268 V        
          la0=-5.17715e-008               lketa=-2.74857e-008         
        lvoff=4.90638e-009               lvth0=4.08394e-008         
          lk1=3.6683e-008                 lk2=-1.75524e-008         
          lu0=3.5785e-009                 lua=2.02514e-016         
          lub=-1.95587e-025                 luc=-2.01738e-017         
        lvsat=-0.00656455               lpclm=2.62582e-007         
     lpdiblc2=3.01969e-009             lpscbe1=    262.582         
         lcit=2.6652e-010                lkt1=1.4874e-008         
         lkt2=8.02372e-010                lute=4.37986e-008         
         lub1=5.96157e-025                luc1=1.03744e-016         
          wa0=1.94802e-006               wketa=1.97602e-007         
        wvoff=1.0423e-007               wvth0=-1.48489e-007         
          wk1=2.76609e-008                 wk2=-1.03495e-008         
          wu0=-4.05563e-008                 wua=1.83049e-015         
          wub=-6.76404e-024                 wuc=-5.97408e-016         
         wkt1=4.09886e-008                wkt2=-4.269e-008         
         wute=2.68505e-007                wub1=3.42323e-024         
         wuc1=7.22553e-016                 pa0=-3.00335e-012         
        pketa=-1.58695e-013               pvoff=-1.55051e-013         
        pvth0=1.99319e-013                 pk1=-2.19267e-013         
          pk2=6.48015e-014                 pu0=-2.91394e-015         
          pua=-6.72625e-021                 pub=9.41171e-030         
          puc=5.96396e-022                pkt1=-1.4993e-013         
         pkt2=-8.08791e-015                pute=-4.4149e-013         
         pub1=-6.00926e-030                puc1=-1.04574e-021         
 
      
1****** HSPICE -- B-2008.09 32-BIT (Aug 26 2008) winnt ******                   
 ******  
 *mattia2015

  ******  operating point information tnom=  25.000 temp=  25.000 *****
 ***** operating point status is all       simulation time is     0.     
    node    =voltage      node    =voltage      node    =voltage

 +0:vdd     = 500.0000m 0:vref    = 499.9086m 0:wire1   = 322.5522m
 +0:wire2   = 482.8768m 0:wire3   = 239.8998m 0:wire4   = 300.1820m
 +0:wire5   = 498.5746m 0:wire6   = 374.7472m 0:wire7   = 499.9999m


 ****  voltage sources

 subckt             
 element  0:vdd     
  volts    500.0000m
  current   -2.7843n
  power      1.3921n

     total voltage source power dissipation=    1.3921n       watts



 **** bipolar junction transistors


 subckt             
 element  0:q0      
 model    0:pnp10   
  ib      -568.4030p
  ic        -1.4607n
  vbe     -482.8768m
  vce     -482.8768m
  vbc        0.     
  vs       -29.3318n
  power    979.8301p
  betad      2.5699 
  gm        57.1725n
  rpi       45.2195x
  rx        36.0634 
  ro       241.4856g
  cpi      151.0204f
  cmu       68.3766f
  cbx        0.     
  ccs        0.     
  betaac     2.5853 
  ft        41.4741k





 **** mosfets


 subckt                                                                    
 element  0:m9       0:m8       0:m10      0:m11      0:m12      0:m1      
 model    0:pch.1    0:pch.4    0:pch.4    0:pch.4    0:pch.4    0:nch.4   
 region       Cutoff     Cutoff     Cutoff     Cutoff     Cutoff     Cutoff
  id        -2.0296n -710.1987p  -39.2370p   -2.3548f   -4.8230p  754.1436p
  ibs      2.118e-22  8.608e-23  4.755e-24  2.804e-28  5.358e-25 -1.476e-24
  ibd       10.8699f    4.3196f  233.3665a  1.411e-20   28.1387a -295.5900a
  vgs     -177.4478m -177.4478m -177.4478m -177.4478m -177.4478m  239.8998m
  vds      -17.1232m -177.4478m   -1.4254m  -83.8629n  -91.3512u  239.8998m
  vbs        0.         0.         0.         0.         0.         0.     
  vth     -381.7706m -377.1983m -377.2380m -377.2383m -380.0473m  561.3675m
  vdsat    -40.3502m  -40.3223m  -40.3218m  -40.3218m  -40.2942m   48.3004m
  vod      204.3228m  199.7506m  199.7902m  199.7905m  202.5995m -321.4677m
  beta     463.2542u   72.3675u   72.3663u   72.3663u  151.0752u    1.5307m
  gam eff  480.4440m  495.5913m  495.5913m  495.5913m  488.0206m  502.4656m
  gm        58.8983n   20.5154n    1.1254n   67.5256f  139.2120p   23.2723n
  gds       86.3439n   81.1056p   26.9753n   28.0793n   52.7297n   67.9720p
  gmb       19.7283n    6.8497n  378.8615p   22.7381f   46.8401p    7.1211n
  cdtot     16.7642f    2.7950f    2.9536f    2.9551f    5.7363f   10.1777f
  cgtot     56.6327f    9.8178f    9.8178f    9.8178f   19.2035f   38.9445f
  cstot     16.8618f    2.9551f    2.9551f    2.9551f    5.7364f   10.9744f
  cbtot     74.5541f   12.9832f   13.1419f   13.1434f   25.4675f   48.3978f
  cgs        3.9262f  646.1600a  646.1600a  646.1600a    1.3022f    2.9247f
  cgd        3.9262f  646.1600a  646.1600a  646.1600a    1.3022f    2.9247f



 subckt                                                                    
 element  0:m2       0:m3       0:m4       0:m5       0:m6       0:m7      
 model    0:nch.4    0:nch.1    0:nch.4    0:nch.1    0:nch.4    0:nch.1   
 region       Cutoff     Cutoff     Cutoff     Cutoff     Cutoff     Cutoff
  id       754.5028p  710.5131p   43.9168p   38.9918p    4.5756p    2.4265f
  ibs     -1.476e-24 -1.336e-24 -9.723e-26 -7.485e-26 -1.039e-26    0.     
  ibd     -267.3204a   -1.6516f  -78.9199a -573.7646a  -82.8643a   -2.0512a
  vgs      242.9770m  182.6948m  198.3926m  123.8274m  125.2527m   91.2673u
  vds       60.2822m   22.3702m   74.5652m  123.8274m  125.1614m   91.2673u
  vbs        0.         0.         0.         0.         0.         0.     
  vth      561.4079m  565.4467m  561.7983m  563.0806m  561.7870m  563.1084m
  vdsat     48.3022m   48.6749m   48.0785m   48.4528m   48.0740m   48.4523m
  vod     -318.4309m -382.7519m -363.4058m -439.2532m -436.5343m -563.0172m
  beta       1.5307m   15.8264m  360.5552u    3.1137m  360.5565u    3.1137m
  gam eff  502.4656m  511.9943m  524.0349m  505.6345m  524.0349m  505.6345m
  gm        23.2519n   22.2833n    1.3738n    1.2315n  144.5227p   76.9413f
  gds        2.7079n   22.2046n   77.9392p   13.3116p    1.4943p   26.5590p
  gmb        7.1118n    7.0154n  430.2806p  392.2033p   46.3221p   25.5686f
  cdtot     10.7417f  107.4056f    2.7911f   20.8892f    2.7466f   21.7866f
  cgtot     38.8997f  399.5106f   10.2277f   81.5742f   10.5231f   86.2702f
  cstot     10.9744f  108.2915f    2.8646f   21.7874f    2.8646f   21.7874f
  cbtot     48.9171f  497.9569f   12.9807f  100.8241f   13.2317f  106.4175f
  cgs        2.9247f   29.3127f  725.6700a    5.8567f  725.6700a    5.8567f
  cgd        2.9247f   29.3127f  725.6700a    5.8567f  725.6700a    5.8567f




          ***** job concluded
1****** HSPICE -- B-2008.09 32-BIT (Aug 26 2008) winnt ******                   
 ******  
 *mattia2015

  ******  job statistics summary tnom=  25.000 temp=  25.000 *****

  ******  HSPICE Threads Information  ******
  Command Line Threads Count:                      0
  Available CPU Count:                             4
  Actual Model Evaluation(Load) Threads Count:     1
  Actual Solver Threads Count:                     1


  ******  Circuit Statistics  ******
  # nodes       =      37  # elements   =      14
  # resistors   =       0  # capacitors =       0  # inductors   =       0
  # mutual_inds =       0  # vccs       =       0  # vcvs        =       0
  # cccs        =       0  # ccvs       =       0  # volt_srcs   =       1
  # curr_srcs   =       0  # diodes     =       0  # bjts        =       1
  # jfets       =       0  # mosfets    =      12  # U elements  =       0
  # T elements  =       0  # W elements =       0  # B elements  =       0
  # S elements  =       0  # P elements =       0  # va device   =       0


  ******  Runtime Statistics (seconds)  ******

  analysis           time    # points   tot. iter  conv.iter
  op point           0.02           1          21
  dc sweep           0.17        1251        2663
  readin             0.16
  errchk             0.03
  setup              0.03
  output             0.00


           total memory used          367  kbytes
           total cpu time            0.46 seconds
           total elapsed time           3 seconds
           job started at     22:06:40 01/19/2019
           job ended   at     22:06:43 01/19/2019


 Init: hspice initialization file: C:\synopsys\Hspice_B-2008.09\hspice.ini
