$DATA1 SOURCE='HSPICE' VERSION='B-2008.09 32-BIT'
.TITLE '*fakharyan_psrr'
 gb               temper           alter#            
    failed          25.0000           1.0000         
