 ****** HSPICE -- B-2008.09 32-BIT (Aug 26 2008) winnt ******                   
  Copyright (C) 2008 Synopsys, Inc. All Rights Reserved.                        
  Unpublished-rights reserved under US copyright laws.
  This program is protected by law and is subject to the 
  terms and conditions of the license agreement from Synopsys.
  Use of this program is your acceptance to be bound by the 
  license agreement. HSPICE is the trademark of Synopsys, Inc.
  Input File: c:\users\jephm\desktop\hspice simulations\4bit flash renew\4bit fl
 Init: read install configuration file: C:\synopsys\Hspice_B-2008.09\meta.cfg
 Init: hspice initialization file: C:\synopsys\Hspice_B-2008.09\hspice.ini





 .global vdd! gnd!

 *inverter eq. mos ckt

 .subckt dynamic_comp_inv vi vo
 *.pininfo vi:i vo:o
 mm4 vo vi vdd! vdd! cmosp w=4u l=350.00n m=1
 mm3 vo vi gnd! gnd! cmosn w=1u l=350.00n m=1

 .ends


 *xor gate eq. mos ckt

 .subckt dynamic_comp_xor2 a b xor2
 *.pininfo a:i b:i xor2:o
 xi0 a ab / dynamic_comp_inv
 xi1 b bb / dynamic_comp_inv
 mm0 xor2 b net20 gnd! cmosn w=1u l=350n m=5
 mm6 net12 ab gnd! gnd! cmosn w=1u l=350n m=5
 mm5 xor2 bb net12 gnd! cmosn w=1u l=350n m=5
 mm11 net20 a gnd! gnd! cmosn w=1u l=350n m=5
 mm8 xor2 b net27 vdd! cmosp w=3u l=350n m=5
 mm9 net35 a vdd! vdd! cmosp w=3u l=350n m=5
 mm10 xor2 bb net35 vdd! cmosp w=3u l=350n m=5
 mm7 net27 ab vdd! vdd! cmosp w=3u l=350n m=5

 .ends

 *nand gate eq. mos ckt

 .subckt dynamic_comp_nand2 va vab vb
 *.pininfo va:i vb:i vab:o
 mma vab va vdd! vdd! cmosp w=3u l=350n m=15
 mmb vab vb vdd! vdd! cmosp w=3u l=350n m=15
 mmc vab va net16 gnd! cmosn w=1u l=350n m=15
 mmd net16 vb gnd! gnd! cmosn w=1u l=350n m=15

 .ends

 *and gate eq. mos ckt

 .subckt dynamic_comp_and1 va vo1 vb
 mme vab va vdd! vdd! cmosp w=3u l=350n m=15
 mmf vab vb vdd! vdd! cmosp w=3u l=350n m=15
 mmg vab va neta3 gnd! cmosn w=1u l=350n m=15
 mmh neta3 vb gnd! gnd! cmosn w=1u l=350n m=15

 mmi vo1 vab vdd! vdd! cmosp w=4u l=350.00n m=1
 mmj vo1 vab gnd! gnd! cmosn w=1u l=350.00n m=1

 .ends

 *latch circuit 

 .subckt dynamic_comp_latch q qb r s
 *.pininfo r:i s:i q:o qb:o
 xi5 qb q net14 / dynamic_comp_nand2
 xi1 net16 qb q / dynamic_comp_nand2
 xi4 r net12 / dynamic_comp_inv
 xi3 net12 net14 / dynamic_comp_inv
 xi2 net18 net16 / dynamic_comp_inv
 xi0 s net18 / dynamic_comp_inv

 .ends

 *comparator eq. mos ckt

 .subckt dynamic_comp vin vip vlatch von vop vrefn vrefp
 *.pininfo vin:i vip:i vlatch:i vrefn:i vrefp:i von:o vop:o
 mmp9 von vlatch vdd! vdd! cmosp w=1u l=350n m=5
 mmp11 vop von vdd! vdd! cmosp w=1u l=350n m=5
 mmp10 von vop vdd! vdd! cmosp w=1u l=350n m=5
 mmp12 vop vlatch vdd! vdd! cmosp w=1u l=350n m=5
 mmn7 von vlatch net48 gnd! cmosn w=1u l=350n m=5
 mmn6 net28 von net36 gnd! cmosn w=1u l=350n m=5
 mmn1 net32 vrefn gnd! gnd! cmosn w=3u l=350n m=20
 mmn3 net36 vin gnd! gnd! cmosn w=3u l=350n m=20
 mmn2 net32 vip gnd! gnd! cmosn w=3u l=350n m=20
 mmn4 net36 vrefp gnd! gnd! cmosn w=3u l=350n m=20
 mmn5 net48 vop net32 gnd! cmosn w=1u l=350n m=5
 mmn8 vop vlatch net28 gnd! cmosn w=1u l=350n m=5

 .ends

 *4 bit flash adc

 .subckt flash_adc_4b g0 g1 g2 g3 b0 b1 b2 b3 t1 t1b t2 t2b t3 t3b t4 t4b t5 t5b t6 t6b t7 t7b 
 + t8 t8b t9 t9b t10 t10b t11 t11b t12 t12b t13 t13b t14 t14b t15 t15b vcm vin vip vlatch

 *.pininfo vcm:i vin:i vip:i vlatch:i b1:o b2:o b3:o t1:o t1b:o t2:o t2b:o t3:o 
 *.pininfo t3b:o t4:o t4b:o t5:o t5b:o t6:o t6b:o t7:o t7b:o

 *32 resistor ladders

 *vrefn

 r1 vdd! vref1n 190k $[rp]
 r2 vref1n vref2n 10k $[rp]
 r3 vref2n vref3n 10k $[rp]
 r4 vref3n vref4n 10k $[rp]
 r5 vref4n vref5n 10k $[rp]
 r6 vref5n vref6n 10k $[rp]
 r7 vref6n vref7n 10k $[rp]
 r8 vref7n net13 10k $[rp]
 r9 net13 vref9n 10k $[rp]
 r10 vref9n vref10n 10k $[rp]
 r11 vref10n vref11n 10k $[rp]
 r12 vref11n vref12n 10k $[rp]
 r13 vref12n vref13n 10k $[rp]
 r14 vref13n vref14n 10k $[rp]
 r15 vref14n vref15n 10k $[rp]
 r16 vref15n gnd! 190k $[rp]
 r16b vdd! vref15p 190k $[rp]
 r15b vref15p vref14p 10k $[rp]
 r14b vref14p vref13p 10k $[rp]
 r13b vref13p vref12p 10k $[rp]
 r12b vref12p vref11p 10k $[rp]
 r11b vref11p vref10p 10k $[rp]
 r10b vref10p vref9p 10k $[rp]
 r9b vref9p net11 10k $[rp]
 r8b net11 vref7p 10k $[rp]
 r7b vref7p vref6p 10k $[rp]
 r6b vref6p vref5p 10k $[rp]
 r5b vref5p vref4p 10k $[rp]
 r4b vref4p vref3p 10k $[rp]
 r3b vref3p vref2p 10k $[rp]
 r2b vref2p vref1p 10k $[rp]
 r1b vref1p gnd! 190k $[rp]

 *15 comparators (2^n-1)

 xi6 vin vip vlatch neta netb vref1n vref1p / dynamic_comp
 xi5 vin vip vlatch netc netd vref2n vref2p / dynamic_comp
 xi4 vin vip vlatch nete netf vref3n vref3p / dynamic_comp
 xi3 vin vip vlatch netg neth vref4n vref4p / dynamic_comp
 xi2 vin vip vlatch neti netj vref5n vref5p / dynamic_comp
 xi1 vin vip vlatch netk netl vref6n vref6p / dynamic_comp
 xi0 vin vip vlatch netm netn vref7n vref7p / dynamic_comp
 xi7 vin vip vlatch neto netp vcm vcm / dynamic_comp  
 xi8 vin vip vlatch netq netr vref9n vref9p / dynamic_comp
 xi9 vin vip vlatch nets nett vref10n vref10p / dynamic_comp 
 xi10 vin vip vlatch netu netv vref11n vref11p / dynamic_comp
 xi11 vin vip vlatch netw netx vref12n vref12p / dynamic_comp
 xi12 vin vip vlatch nety netz vref13n vref13p / dynamic_comp
 xi13 vin vip vlatch neta2 netb2 vref14n vref14p / dynamic_comp
 xi14 vin vip vlatch netc2 netd2 vref15n vref15p / dynamic_comp

 *binary codes to thermometer codes (latch)

 xi15 t1 t1b neta netb / dynamic_comp_latch
 xi16 t2 t2b netc netd / dynamic_comp_latch
 xi17 t3 t3b nete netf / dynamic_comp_latch
 xi18 t4 t4b netg neth / dynamic_comp_latch
 xi19 t5 t5b neti netj / dynamic_comp_latch
 xi20 t6 t6b netk netl / dynamic_comp_latch
 xi21 t7 t7b netm netn / dynamic_comp_latch
 xi22 t8 t8b neto netp / dynamic_comp_latch
 xi23 t9 t9b netq netr / dynamic_comp_latch
 xi24 t10 t10b nets nett / dynamic_comp_latch
 xi25 t11 t11b netu netv / dynamic_comp_latch
 xi26 t12 t12b netw netx / dynamic_comp_latch
 xi27 t13 t13b nety netz / dynamic_comp_latch
 xi28 t14 t14b neta2 netb2 / dynamic_comp_latch
 xi29 t15 t15b netc2 netd2 / dynamic_comp_latch

 *thermometer -> gray -> binary code (encoder)

 xi30 t1 wire1 t3b / dynamic_comp_nand2

 *xi32 wire2 invwire2 / dynamic_comp_inv

 xi31 t5 wire3 t7b / dynamic_comp_nand2 

 xi33 wire1 wire2 wire3 / dynamic_comp_and1

 xi35 t9 wire4 t11b / dynamic_comp_nand2

 xi38 t13 wire6 t15b / dynamic_comp_nand2

 xi36 wire4 wire5 wire6 / dynamic_comp_and1

 xi34 wire2 g0 wire5 / dynamic_comp_nand2

 *xi37 wire5 invwire5 / dynamic_comp_inv

 xi39 t2 wire7 t6b / dynamic_comp_nand2
 xi40 t10 wire8 t14b / dynamic_comp_nand2
 xi41 t4 wire9 t12b / dynamic_comp_nand2
 xi42 t8 wire10 t8 / dynamic_comp_nand2

 xi43 wire7 g1 wire8 / dynamic_comp_nand2
 xi44 wire9 g2 wire9 / dynamic_comp_nand2
 xi45 wire10 g3 wire10 / dynamic_comp_nand2

 xi47 g1 b2 b1 / dynamic_comp_xor2
 xi46 g0 b1 b0 / dynamic_comp_xor2
 xi49 g2 b3 b2 / dynamic_comp_xor2

 xi51 t8 net074 / dynamic_comp_inv
 xi50 net074 g3 / dynamic_comp_inv
 xi52 g3 neta4 / dynamic_comp_inv
 xi53 neta4 b3 / dynamic_comp_inv

 .ends

 xfadc g0 g1 g2 g3 b0 b1 b2 b3 t1 t1b t2 t2b t3 t3b t4 t4b t5 t5b t6 t6b t7 t7b 
 +t8 t8b t9 t9b t10 t10b t11 t11b t12 t12b t13 t13b t14 t14b t15 t15b vcm vin vip clk / flash_adc_4b

 v1 vdd! 0 dc 3v
 v2 gnd! 0 dc 0v 

 vcm vcm 0 1.5v

 vinp vin 0 dc  1.5v   
 vinn vip 0 pwl (0ns 0v 20us 3v)

 vreset clk 0 pulse (0v 3v 0.1u 0.1n 0.1n 0.2499u 0.5u) 

 .tran 0.01u  20u  *0.001u   800u          
 .meas tran tot_power avg power  from=0  to=10u

 .op
 .option post = 2
 .option acout = 0


 .end

 ***********************************************************************
 ** runlvl is invoked, you can disable it by:
      a) Add option runlvl=0 to your current simulation job.
      b) Copy $installdir/hspice.ini to your HOME directory and
         customize it by adding option runlvl=0, which disables
         it for all of your simulation jobs.
      c) Re-invoke $installdir/bin/config program and unselect the
         option runlvl setting in box 'hspice.ini' which disables
         it for whole group simulation jobs.

 ** runlvl is invoked, some options are ignored or automatically set:
      Options below are automatically set(user setting will overwrite them):
      if runlvl=[1|2|3|4|5|6],  .option bypass=2

      Options below are ignored, they are replaced by automated algorithms:
        lvltim    dvdt      ft    fast   trtol  absvar  relvar
          relq  chgtol    dvtr    imin    itl3    rmax

 ** runlvl is invoked, actual option value used by HSPICE are:
       runlvl= 3       bypass= 2      mbypass=   2.00   bytol= 100.00u
 ***********************************************************************

1****** HSPICE -- B-2008.09 32-BIT (Aug 26 2008) winnt ******                   
 ******  
 *4 bit flash adc — renew

  ******  circuit name directory
 circuit number to circuit name directory
   number circuitname                     definition         multiplier
        0 main circuit
        1 xfadc.                          flash_adc_4b       1.00 
        2 xfadc.xi6.                      dynamic_comp       1.00 
        3 xfadc.xi5.                      dynamic_comp       1.00 
        4 xfadc.xi4.                      dynamic_comp       1.00 
        5 xfadc.xi3.                      dynamic_comp       1.00 
        6 xfadc.xi2.                      dynamic_comp       1.00 
        7 xfadc.xi1.                      dynamic_comp       1.00 
        8 xfadc.xi0.                      dynamic_comp       1.00 
        9 xfadc.xi7.                      dynamic_comp       1.00 
       10 xfadc.xi8.                      dynamic_comp       1.00 
       11 xfadc.xi9.                      dynamic_comp       1.00 
       12 xfadc.xi10.                     dynamic_comp       1.00 
       13 xfadc.xi11.                     dynamic_comp       1.00 
       14 xfadc.xi12.                     dynamic_comp       1.00 
       15 xfadc.xi13.                     dynamic_comp       1.00 
       16 xfadc.xi14.                     dynamic_comp       1.00 
       17 xfadc.xi15.                     dynamic_comp_latch
                                                                 1.00 
       18 xfadc.xi16.                     dynamic_comp_latch
                                                                 1.00 
       19 xfadc.xi17.                     dynamic_comp_latch
                                                                 1.00 
       20 xfadc.xi18.                     dynamic_comp_latch
                                                                 1.00 
       21 xfadc.xi19.                     dynamic_comp_latch
                                                                 1.00 
       22 xfadc.xi20.                     dynamic_comp_latch
                                                                 1.00 
       23 xfadc.xi21.                     dynamic_comp_latch
                                                                 1.00 
       24 xfadc.xi22.                     dynamic_comp_latch
                                                                 1.00 
       25 xfadc.xi23.                     dynamic_comp_latch
                                                                 1.00 
       26 xfadc.xi24.                     dynamic_comp_latch
                                                                 1.00 
       27 xfadc.xi25.                     dynamic_comp_latch
                                                                 1.00 
       28 xfadc.xi26.                     dynamic_comp_latch
                                                                 1.00 
       29 xfadc.xi27.                     dynamic_comp_latch
                                                                 1.00 
       30 xfadc.xi28.                     dynamic_comp_latch
                                                                 1.00 
       31 xfadc.xi29.                     dynamic_comp_latch
                                                                 1.00 
       32 xfadc.xi30.                     dynamic_comp_nand2
                                                                 1.00 
       33 xfadc.xi31.                     dynamic_comp_nand2
                                                                 1.00 
       34 xfadc.xi33.                     dynamic_comp_and1
                                                                 1.00 
       35 xfadc.xi35.                     dynamic_comp_nand2
                                                                 1.00 
       36 xfadc.xi38.                     dynamic_comp_nand2
                                                                 1.00 
       37 xfadc.xi36.                     dynamic_comp_and1
                                                                 1.00 
       38 xfadc.xi34.                     dynamic_comp_nand2
                                                                 1.00 
       39 xfadc.xi39.                     dynamic_comp_nand2
                                                                 1.00 
       40 xfadc.xi40.                     dynamic_comp_nand2
                                                                 1.00 
       41 xfadc.xi41.                     dynamic_comp_nand2
                                                                 1.00 
       42 xfadc.xi42.                     dynamic_comp_nand2
                                                                 1.00 
       43 xfadc.xi43.                     dynamic_comp_nand2
                                                                 1.00 
       44 xfadc.xi44.                     dynamic_comp_nand2
                                                                 1.00 
       45 xfadc.xi45.                     dynamic_comp_nand2
                                                                 1.00 
       46 xfadc.xi47.                     dynamic_comp_xor2
                                                                 1.00 
       47 xfadc.xi46.                     dynamic_comp_xor2
                                                                 1.00 
       48 xfadc.xi49.                     dynamic_comp_xor2
                                                                 1.00 
       49 xfadc.xi51.                     dynamic_comp_inv   1.00 
       50 xfadc.xi50.                     dynamic_comp_inv   1.00 
       51 xfadc.xi52.                     dynamic_comp_inv   1.00 
       52 xfadc.xi53.                     dynamic_comp_inv   1.00 
       53 xfadc.xi15.xi5.                 dynamic_comp_nand2
                                                                 1.00 
       54 xfadc.xi15.xi1.                 dynamic_comp_nand2
                                                                 1.00 
       55 xfadc.xi15.xi4.                 dynamic_comp_inv   1.00 
       56 xfadc.xi15.xi3.                 dynamic_comp_inv   1.00 
       57 xfadc.xi15.xi2.                 dynamic_comp_inv   1.00 
       58 xfadc.xi15.xi0.                 dynamic_comp_inv   1.00 
       59 xfadc.xi16.xi5.                 dynamic_comp_nand2
                                                                 1.00 
       60 xfadc.xi16.xi1.                 dynamic_comp_nand2
                                                                 1.00 
       61 xfadc.xi16.xi4.                 dynamic_comp_inv   1.00 
       62 xfadc.xi16.xi3.                 dynamic_comp_inv   1.00 
       63 xfadc.xi16.xi2.                 dynamic_comp_inv   1.00 
       64 xfadc.xi16.xi0.                 dynamic_comp_inv   1.00 
       65 xfadc.xi17.xi5.                 dynamic_comp_nand2
                                                                 1.00 
       66 xfadc.xi17.xi1.                 dynamic_comp_nand2
                                                                 1.00 
       67 xfadc.xi17.xi4.                 dynamic_comp_inv   1.00 
       68 xfadc.xi17.xi3.                 dynamic_comp_inv   1.00 
       69 xfadc.xi17.xi2.                 dynamic_comp_inv   1.00 
       70 xfadc.xi17.xi0.                 dynamic_comp_inv   1.00 
       71 xfadc.xi18.xi5.                 dynamic_comp_nand2
                                                                 1.00 
       72 xfadc.xi18.xi1.                 dynamic_comp_nand2
                                                                 1.00 
       73 xfadc.xi18.xi4.                 dynamic_comp_inv   1.00 
       74 xfadc.xi18.xi3.                 dynamic_comp_inv   1.00 
       75 xfadc.xi18.xi2.                 dynamic_comp_inv   1.00 
       76 xfadc.xi18.xi0.                 dynamic_comp_inv   1.00 
       77 xfadc.xi19.xi5.                 dynamic_comp_nand2
                                                                 1.00 
       78 xfadc.xi19.xi1.                 dynamic_comp_nand2
                                                                 1.00 
       79 xfadc.xi19.xi4.                 dynamic_comp_inv   1.00 
       80 xfadc.xi19.xi3.                 dynamic_comp_inv   1.00 
       81 xfadc.xi19.xi2.                 dynamic_comp_inv   1.00 
       82 xfadc.xi19.xi0.                 dynamic_comp_inv   1.00 
       83 xfadc.xi20.xi5.                 dynamic_comp_nand2
                                                                 1.00 
       84 xfadc.xi20.xi1.                 dynamic_comp_nand2
                                                                 1.00 
       85 xfadc.xi20.xi4.                 dynamic_comp_inv   1.00 
       86 xfadc.xi20.xi3.                 dynamic_comp_inv   1.00 
       87 xfadc.xi20.xi2.                 dynamic_comp_inv   1.00 
       88 xfadc.xi20.xi0.                 dynamic_comp_inv   1.00 
       89 xfadc.xi21.xi5.                 dynamic_comp_nand2
                                                                 1.00 
       90 xfadc.xi21.xi1.                 dynamic_comp_nand2
                                                                 1.00 
       91 xfadc.xi21.xi4.                 dynamic_comp_inv   1.00 
       92 xfadc.xi21.xi3.                 dynamic_comp_inv   1.00 
       93 xfadc.xi21.xi2.                 dynamic_comp_inv   1.00 
       94 xfadc.xi21.xi0.                 dynamic_comp_inv   1.00 
       95 xfadc.xi22.xi5.                 dynamic_comp_nand2
                                                                 1.00 
       96 xfadc.xi22.xi1.                 dynamic_comp_nand2
                                                                 1.00 
       97 xfadc.xi22.xi4.                 dynamic_comp_inv   1.00 
       98 xfadc.xi22.xi3.                 dynamic_comp_inv   1.00 
       99 xfadc.xi22.xi2.                 dynamic_comp_inv   1.00 
      100 xfadc.xi22.xi0.                 dynamic_comp_inv   1.00 
      101 xfadc.xi23.xi5.                 dynamic_comp_nand2
                                                                 1.00 
      102 xfadc.xi23.xi1.                 dynamic_comp_nand2
                                                                 1.00 
      103 xfadc.xi23.xi4.                 dynamic_comp_inv   1.00 
      104 xfadc.xi23.xi3.                 dynamic_comp_inv   1.00 
      105 xfadc.xi23.xi2.                 dynamic_comp_inv   1.00 
      106 xfadc.xi23.xi0.                 dynamic_comp_inv   1.00 
      107 xfadc.xi24.xi5.                 dynamic_comp_nand2
                                                                 1.00 
      108 xfadc.xi24.xi1.                 dynamic_comp_nand2
                                                                 1.00 
      109 xfadc.xi24.xi4.                 dynamic_comp_inv   1.00 
      110 xfadc.xi24.xi3.                 dynamic_comp_inv   1.00 
      111 xfadc.xi24.xi2.                 dynamic_comp_inv   1.00 
      112 xfadc.xi24.xi0.                 dynamic_comp_inv   1.00 
      113 xfadc.xi25.xi5.                 dynamic_comp_nand2
                                                                 1.00 
      114 xfadc.xi25.xi1.                 dynamic_comp_nand2
                                                                 1.00 
      115 xfadc.xi25.xi4.                 dynamic_comp_inv   1.00 
      116 xfadc.xi25.xi3.                 dynamic_comp_inv   1.00 
      117 xfadc.xi25.xi2.                 dynamic_comp_inv   1.00 
      118 xfadc.xi25.xi0.                 dynamic_comp_inv   1.00 
      119 xfadc.xi26.xi5.                 dynamic_comp_nand2
                                                                 1.00 
      120 xfadc.xi26.xi1.                 dynamic_comp_nand2
                                                                 1.00 
      121 xfadc.xi26.xi4.                 dynamic_comp_inv   1.00 
      122 xfadc.xi26.xi3.                 dynamic_comp_inv   1.00 
      123 xfadc.xi26.xi2.                 dynamic_comp_inv   1.00 
      124 xfadc.xi26.xi0.                 dynamic_comp_inv   1.00 
      125 xfadc.xi27.xi5.                 dynamic_comp_nand2
                                                                 1.00 
      126 xfadc.xi27.xi1.                 dynamic_comp_nand2
                                                                 1.00 
      127 xfadc.xi27.xi4.                 dynamic_comp_inv   1.00 
      128 xfadc.xi27.xi3.                 dynamic_comp_inv   1.00 
      129 xfadc.xi27.xi2.                 dynamic_comp_inv   1.00 
      130 xfadc.xi27.xi0.                 dynamic_comp_inv   1.00 
      131 xfadc.xi28.xi5.                 dynamic_comp_nand2
                                                                 1.00 
      132 xfadc.xi28.xi1.                 dynamic_comp_nand2
                                                                 1.00 
      133 xfadc.xi28.xi4.                 dynamic_comp_inv   1.00 
      134 xfadc.xi28.xi3.                 dynamic_comp_inv   1.00 
      135 xfadc.xi28.xi2.                 dynamic_comp_inv   1.00 
      136 xfadc.xi28.xi0.                 dynamic_comp_inv   1.00 
      137 xfadc.xi29.xi5.                 dynamic_comp_nand2
                                                                 1.00 
      138 xfadc.xi29.xi1.                 dynamic_comp_nand2
                                                                 1.00 
      139 xfadc.xi29.xi4.                 dynamic_comp_inv   1.00 
      140 xfadc.xi29.xi3.                 dynamic_comp_inv   1.00 
      141 xfadc.xi29.xi2.                 dynamic_comp_inv   1.00 
      142 xfadc.xi29.xi0.                 dynamic_comp_inv   1.00 
      143 xfadc.xi47.xi0.                 dynamic_comp_inv   1.00 
      144 xfadc.xi47.xi1.                 dynamic_comp_inv   1.00 
      145 xfadc.xi46.xi0.                 dynamic_comp_inv   1.00 
      146 xfadc.xi46.xi1.                 dynamic_comp_inv   1.00 
      147 xfadc.xi49.xi0.                 dynamic_comp_inv   1.00 
      148 xfadc.xi49.xi1.                 dynamic_comp_inv   1.00 

 **warning** both nodes of source     0:v2              
             are connected together


 **warning** dc voltage reset to initial transient source value
             in source        0:vinn                new dc=  0.0000D+00


 **warning** dc voltage reset to initial transient source value
             in source        0:vreset              new dc=  0.0000D+00

 

 
      
  Opening plot unit= 79
 file=c:\users\jephm\desktop\hspice simulations\4bit flash renew\4bit flash.pa0

1****** HSPICE -- B-2008.09 32-BIT (Aug 26 2008) winnt ******                   
 ******  
 *4 bit flash adc — renew

  ******  operating point information tnom=  25.000 temp=  25.000 *****
 ***** operating point status is all       simulation time is     0.     
      node    =voltage        node    =voltage        node    =voltage

 +  0:b0      =  51.6624n   0:b1      =   3.0000    0:b2      =  51.6624n
 +  0:b3      =   9.7342n   0:clk     =   0.        0:g0      =   3.0000 
 +  0:g1      =   3.0000    0:g2      =  38.9101n   0:g3      =  35.4776n
 +  0:t1      =  38.9101n   0:t10     =   3.0000    0:t10b    =  38.9101n
 +  0:t11     =  38.9101n   0:t11b    =   3.0000    0:t12     =  38.9101n
 +  0:t12b    =   3.0000    0:t13     =  38.9101n   0:t13b    =   3.0000 
 +  0:t14     =   3.0000    0:t14b    =  38.9101n   0:t15     =   1.4529 
 +  0:t15b    =   1.5481    0:t1b     =   3.0000    0:t2      =   3.0000 
 +  0:t2b     =  38.9101n   0:t3      =   1.4529    0:t3b     =   1.5481 
 +  0:t4      =  38.9101n   0:t4b     =   3.0000    0:t5      =  38.9101n
 +  0:t5b     =   3.0000    0:t6      =  38.9101n   0:t6b     =   3.0000 
 +  0:t7      =   3.0000    0:t7b     =  38.9101n   0:t8      =  38.9101n
 +  0:t8b     =   3.0000    0:t9      =   3.0000    0:t9b     =  38.9101n
 +  0:vcm     =   1.5000    0:vdd!    =   3.0000    0:vin     =   1.5000 
 +  0:vip     =   0.        1:net074  =   3.0000    1:net11   =   1.5000 
 +  1:net13   =   1.5000    1:neta    =   3.0000    1:neta2   =   3.0000 
 +  1:neta4   =   3.0000    1:netb    =   3.0000    1:netb2   =   3.0000 
 +  1:netc    =   3.0000    1:netc2   =   3.0000    1:netd    =   3.0000 
 +  1:netd2   =   3.0000    1:nete    =   3.0000    1:netf    =   3.0000 
 +  1:netg    =   3.0000    1:neth    =   3.0000    1:neti    =   3.0000 
 +  1:netj    =   3.0000    1:netk    =   3.0000    1:netl    =   3.0000 
 +  1:netm    =   3.0000    1:netn    =   3.0000    1:neto    =   3.0000 
 +  1:netp    =   3.0000    1:netq    =   3.0000    1:netr    =   3.0000 
 +  1:nets    =   3.0000    1:nett    =   3.0000    1:netu    =   3.0000 
 +  1:netv    =   3.0000    1:netw    =   3.0000    1:netx    =   3.0000 
 +  1:nety    =   3.0000    1:netz    =   3.0000    1:vref10n =   1.3846 
 +  1:vref10p =   1.6154    1:vref11n =   1.3269    1:vref11p =   1.6731 
 +  1:vref12n =   1.2692    1:vref12p =   1.7308    1:vref13n =   1.2115 
 +  1:vref13p =   1.7885    1:vref14n =   1.1538    1:vref14p =   1.8462 
 +  1:vref15n =   1.0962    1:vref15p =   1.9038    1:vref1n  =   1.9038 
 +  1:vref1p  =   1.0962    1:vref2n  =   1.8462    1:vref2p  =   1.1538 
 +  1:vref3n  =   1.7885    1:vref3p  =   1.2115    1:vref4n  =   1.7308 
 +  1:vref4p  =   1.2692    1:vref5n  =   1.6731    1:vref5p  =   1.3269 
 +  1:vref6n  =   1.6154    1:vref6p  =   1.3846    1:vref7n  =   1.5577 
 +  1:vref7p  =   1.4423    1:vref9n  =   1.4423    1:vref9p  =   1.5577 
 +  1:wire1   =   3.0000    1:wire10  =   3.0000    1:wire2   =   3.0000 
 +  1:wire3   =   3.0000    1:wire4   =  38.9101n   1:wire5   =   9.7342n
 +  1:wire6   =   3.0000    1:wire7   =  38.9101n   1:wire8   =   3.0000 
 +  1:wire9   =   3.0000    2:net28   =  37.6069n   2:net32   =   4.4337n
 +  2:net36   =   3.6044n   2:net48   =  38.4361n   3:net28   =  37.4565n
 +  3:net32   =   4.5655n   3:net36   =   3.4541n   3:net48   =  38.5680n
 +  4:net28   =  37.3272n   4:net32   =   4.7108n   4:net36   =   3.3248n
 +  4:net48   =  38.7133n   5:net28   =  37.2143n   5:net32   =   4.8718n
 +  5:net36   =   3.2118n   5:net48   =  38.8743n   6:net28   =  37.1145n
 +  6:net32   =   5.0513n   6:net36   =   3.1120n   6:net48   =  39.0537n
 +  7:net28   =  37.0253n   7:net32   =   5.2526n   7:net36   =   3.0228n
 +  7:net48   =  39.2550n   8:net28   =  36.9450n   8:net32   =   5.4801n
 +  8:net36   =   2.9425n   8:net48   =  39.4825n   9:net28   =  36.8722n
 +  9:net32   =   5.7395n   9:net36   =   2.8697n   9:net48   =  39.7420n
 + 10:net28   =  36.8059n  10:net32   =   6.0382n  10:net36   =   2.8034n
 + 10:net48   =  40.0407n  11:net28   =  36.7451n  11:net32   =   6.3864n
 + 11:net36   =   2.7426n  11:net48   =  40.3888n  12:net28   =  36.6892n
 + 12:net32   =   6.7979n  12:net36   =   2.6867n  12:net48   =  40.8004n
 + 13:net28   =  36.6376n  13:net32   =   7.2931n  13:net36   =   2.6351n
 + 13:net48   =  41.2956n  14:net28   =  36.5897n  14:net32   =   7.9024n
 + 14:net36   =   2.5873n  14:net48   =  41.9049n  15:net28   =  36.5453n
 + 15:net32   =   8.6742n  15:net36   =   2.5428n  15:net48   =  42.6767n
 + 16:net28   =  36.5038n  16:net32   =   9.6895n  16:net36   =   2.5014n
 + 16:net48   =  43.6920n  17:net12   =   9.7342n  17:net14   =   3.0000 
 + 17:net16   =   3.0000   17:net18   =   9.7342n  18:net12   =   9.7342n
 + 18:net14   =   3.0000   18:net16   =   3.0000   18:net18   =   9.7342n
 + 19:net12   =   9.7342n  19:net14   =   3.0000   19:net16   =   3.0000 
 + 19:net18   =   9.7342n  20:net12   =   9.7342n  20:net14   =   3.0000 
 + 20:net16   =   3.0000   20:net18   =   9.7342n  21:net12   =   9.7342n
 + 21:net14   =   3.0000   21:net16   =   3.0000   21:net18   =   9.7342n
 + 22:net12   =   9.7342n  22:net14   =   3.0000   22:net16   =   3.0000 
 + 22:net18   =   9.7342n  23:net12   =   9.7342n  23:net14   =   3.0000 
 + 23:net16   =   3.0000   23:net18   =   9.7342n  24:net12   =   9.7342n
 + 24:net14   =   3.0000   24:net16   =   3.0000   24:net18   =   9.7342n
 + 25:net12   =   9.7342n  25:net14   =   3.0000   25:net16   =   3.0000 
 + 25:net18   =   9.7342n  26:net12   =   9.7342n  26:net14   =   3.0000 
 + 26:net16   =   3.0000   26:net18   =   9.7342n  27:net12   =   9.7342n
 + 27:net14   =   3.0000   27:net16   =   3.0000   27:net18   =   9.7342n
 + 28:net12   =   9.7342n  28:net14   =   3.0000   28:net16   =   3.0000 
 + 28:net18   =   9.7342n  29:net12   =   9.7342n  29:net14   =   3.0000 
 + 29:net16   =   3.0000   29:net18   =   9.7342n  30:net12   =   9.7342n
 + 30:net14   =   3.0000   30:net16   =   3.0000   30:net18   =   9.7342n
 + 31:net12   =   9.7342n  31:net14   =   3.0000   31:net16   =   3.0000 
 + 31:net18   =   9.7342n  32:net16   =  61.3956n  33:net16   = 185.7160m
 + 34:neta3   =  19.4550n  34:vab     =  38.9101n  35:net16   =  19.4550n
 + 36:net16   =  61.3956n  37:neta3   =  34.0025n  37:vab     =   3.0000 
 + 38:net16   =   2.4079   39:net16   =  19.4550n  40:net16   =   2.4079 
 + 41:net16   =  34.0025n  42:net16   = 185.7160m  43:net16   =  34.0025n
 + 44:net16   =  19.4550n  45:net16   =  17.7388n  46:ab      =   9.7342n
 + 46:bb      =   3.0000   46:net12   =   2.4079   46:net20   =  34.0025n
 + 46:net27   =   3.0000   46:net35   =   3.0000   47:ab      =   9.7342n
 + 47:bb      =   9.7342n  47:net12   =  25.4972n  47:net20   =  25.8312n
 + 47:net27   =   3.0000   47:net35   = 684.9208m  48:ab      =   3.0000 
 + 48:bb      =   3.0000   48:net12   =  25.8312n  48:net20   =  25.4972n
 + 48:net27   = 684.9208m  48:net35   =   3.0000   53:net16   =  19.4550n
 + 54:net16   =   2.4079   59:net16   =  34.0025n  60:net16   =  19.4550n
 + 65:net16   = 169.8080m  66:net16   =   1.1020   71:net16   =  19.4550n
 + 72:net16   =   2.4079   77:net16   =  19.4550n  78:net16   =   2.4079 
 + 83:net16   =  19.4550n  84:net16   =   2.4079   89:net16   =  34.0025n
 + 90:net16   =  19.4550n  95:net16   =  19.4550n  96:net16   =   2.4079 
 +101:net16   =  34.0025n 102:net16   =  19.4550n 107:net16   =  34.0025n
 +108:net16   =  19.4550n 113:net16   =  19.4550n 114:net16   =   2.4079 
 +119:net16   =  19.4550n 120:net16   =   2.4079  125:net16   =  19.4550n
 +126:net16   =   2.4079  131:net16   =  34.0025n 132:net16   =  19.4550n
 +137:net16   = 169.8080m 138:net16   =   1.1020 


 ****  voltage sources

 subckt                                                                   
 element    0:v1         0:vcm        0:vinp       0:vinn       0:vreset  
  volts        3.0000       1.5000       1.5000       0.           0.     
  current     -6.5728m      0.           0.           0.           0.     
  power       19.7185m      0.           0.           0.           0.     

     total voltage source power dissipation=   19.7185m       watts



 **** resistors

 subckt     xfadc        xfadc        xfadc        xfadc        xfadc     
 element    1:r1         1:r2         1:r3         1:r4         1:r5      
  r value    190.0000k     10.0000k     10.0000k     10.0000k     10.0000k
  v drop       1.0962      57.6923m     57.6923m     57.6923m     57.6923m
  current      5.7692u      5.7692u      5.7692u      5.7692u      5.7692u
  power        6.3240u    332.8402n    332.8402n    332.8402n    332.8402n

 subckt     xfadc        xfadc        xfadc        xfadc        xfadc     
 element    1:r6         1:r7         1:r8         1:r9         1:r10     
  r value     10.0000k     10.0000k     10.0000k     10.0000k     10.0000k
  v drop      57.6923m     57.6923m     57.6923m     57.6923m     57.6923m
  current      5.7692u      5.7692u      5.7692u      5.7692u      5.7692u
  power      332.8402n    332.8402n    332.8402n    332.8402n    332.8402n

 subckt     xfadc        xfadc        xfadc        xfadc        xfadc     
 element    1:r11        1:r12        1:r13        1:r14        1:r15     
  r value     10.0000k     10.0000k     10.0000k     10.0000k     10.0000k
  v drop      57.6923m     57.6923m     57.6923m     57.6923m     57.6923m
  current      5.7692u      5.7692u      5.7692u      5.7692u      5.7692u
  power      332.8402n    332.8402n    332.8402n    332.8402n    332.8402n

 subckt     xfadc        xfadc        xfadc        xfadc        xfadc     
 element    1:r16        1:r16b       1:r15b       1:r14b       1:r13b    
  r value    190.0000k    190.0000k     10.0000k     10.0000k     10.0000k
  v drop       1.0962       1.0962      57.6923m     57.6923m     57.6923m
  current      5.7692u      5.7692u      5.7692u      5.7692u      5.7692u
  power        6.3240u      6.3240u    332.8402n    332.8402n    332.8402n

 subckt     xfadc        xfadc        xfadc        xfadc        xfadc     
 element    1:r12b       1:r11b       1:r10b       1:r9b        1:r8b     
  r value     10.0000k     10.0000k     10.0000k     10.0000k     10.0000k
  v drop      57.6923m     57.6923m     57.6923m     57.6923m     57.6923m
  current      5.7692u      5.7692u      5.7692u      5.7692u      5.7692u
  power      332.8402n    332.8402n    332.8402n    332.8402n    332.8402n

 subckt     xfadc        xfadc        xfadc        xfadc        xfadc     
 element    1:r7b        1:r6b        1:r5b        1:r4b        1:r3b     
  r value     10.0000k     10.0000k     10.0000k     10.0000k     10.0000k
  v drop      57.6923m     57.6923m     57.6923m     57.6923m     57.6923m
  current      5.7692u      5.7692u      5.7692u      5.7692u      5.7692u
  power      332.8402n    332.8402n    332.8402n    332.8402n    332.8402n

 subckt     xfadc        xfadc     
 element    1:r2b        1:r1b     
  r value     10.0000k    190.0000k
  v drop      57.6923m      1.0962 
  current      5.7692u      5.7692u
  power      332.8402n      6.3240u



 **** mosfets


 subckt     xfadc.xi6    xfadc.xi6    xfadc.xi6    xfadc.xi6    xfadc.xi6 
 element    2:mmp9       2:mmp11      2:mmp10      2:mmp12      2:mmn7    
 model      0:cmosp      0:cmosp      0:cmosp      0:cmosp      0:cmosn   
 region         Linear       Cutoff       Cutoff       Linear       Cutoff
  id        -120.0599p   -1.591e-20   -1.591e-20   -120.0599p     90.0599p
  ibs          0.           0.           0.           0.           0.     
  ibd          0.           0.           0.           0.           0.     
  vgs         -3.0000    -178.2073n   -178.2073n     -3.0000     -38.4361n
  vds       -178.2073n   -178.2073n   -178.2073n   -178.2073n      3.0000 
  vbs          0.           0.           0.           0.         -38.4361n
  vth       -790.8746m   -790.8746m   -790.8746m   -790.8746m    502.2059m
  vdsat       -1.5576     -39.9364m    -39.9364m     -1.5576      37.4830m
  vod         -2.2091     790.8744m    790.8744m     -2.2091    -502.2059m
  beta       718.5580u    897.0569u    897.0569u    718.5580u      2.4861m
  gam eff    505.7716m    505.7716m    505.7716m    505.7716m    597.0299m
  gm          24.2134p    4.359e-19    4.359e-19     24.2134p      1.9252n
  gds        673.7093u     89.2506f     89.2506f    673.7093u     75.5837p
  gmb         10.5649p    1.515e-19    1.515e-19     10.5649p    718.4594p
  cdtot        3.5410f    873.1504a    873.1504a      3.5410f      1.1319f
  cgtot        7.5287f      3.7985f      3.7985f      7.5287f      4.0102f
  cstot        1.7767f    873.1504a    873.1504a      1.7767f      1.1320f
  cbtot        1.5290f      2.1050f      2.1050f      1.5290f      1.8383f
  cgs          3.8071f    871.2389a    871.2389a      3.8071f      1.0823f
  cgd          3.5578f    822.3009a    822.3009a      3.5578f      1.0897f



 subckt     xfadc.xi6    xfadc.xi6    xfadc.xi6    xfadc.xi6    xfadc.xi6 
 element    2:mmn6       2:mmn1       2:mmn3       2:mmn2       2:mmn4    
 model      0:cmosn      0:cmosn      0:cmosn      0:cmosn      0:cmosn   
 region         Linear       Linear       Linear       Cutoff       Linear
  id         105.0599p    105.0599p     65.9783p      3.1054a     39.0815p
  ibs          0.           0.           0.           0.           0.     
  ibd          0.           0.           0.           0.           0.     
  vgs          3.0000       1.9038       1.5000       0.           1.0962 
  vds         34.0025n      4.4337n      3.6044n      4.4337n      3.6044n
  vbs         -3.6044n      0.           0.           0.           0.     
  vth        578.3298m    671.5272m    671.5272m    671.5272m    671.5272m
  vdsat      863.9024m    578.4542m    439.2548m     37.8473m    272.8268m
  vod          2.4217       1.2323     828.4728m   -671.5272m    424.6267m
  beta         2.0791m     30.4997m     31.7696m     33.7006m     32.8613m
  gam eff    597.0299m    597.2767m    597.2767m    597.2767m    597.2767m
  gm          23.6234p     51.6616p     55.3224p     66.5125a     82.3271p
  gds          3.0898m     23.6960m     18.3047m    700.4198p     10.8426m
  gmb          9.5964p     16.7497p     17.1328p     28.9263a     23.3274p
  cdtot        3.8099f     51.6146f     51.0596f     15.6076f     49.5393f
  cgtot        7.8400f    108.1445f    108.1908f     57.6172f    108.2635f
  cstot        2.0401f     29.0398f     29.5949f     15.6076f     31.1101f
  cbtot        1.8286f     25.2413f     25.2782f     27.4140f     25.3442f
  cgs          3.8834f     54.1109f     54.6778f     15.2327f     56.2116f
  cgd          3.7306f     50.8678f     50.3102f     14.9705f     48.7817f



 subckt     xfadc.xi6    xfadc.xi6    xfadc.xi5    xfadc.xi5    xfadc.xi5 
 element    2:mmn5       2:mmn8       3:mmp9       3:mmp11      3:mmp10   
 model      0:cmosn      0:cmosn      0:cmosp      0:cmosp      0:cmosp   
 region         Linear       Cutoff       Linear       Cutoff       Cutoff
  id         105.0599p     90.0599p   -120.0599p   -1.591e-20   -1.591e-20
  ibs          0.           0.           0.           0.           0.     
  ibd          0.           0.           0.           0.           0.     
  vgs          3.0000     -37.6069n     -3.0000    -178.2073n   -178.2073n
  vds         34.0025n      3.0000    -178.2073n   -178.2073n   -178.2073n
  vbs         -4.4337n    -37.6069n      0.           0.           0.     
  vth        578.3298m    502.2059m   -790.8746m   -790.8746m   -790.8746m
  vdsat      863.9024m     37.4830m     -1.5576     -39.9364m    -39.9364m
  vod          2.4217    -502.2059m     -2.2091     790.8744m    790.8744m
  beta         2.0791m      2.4861m    718.5580u    897.0569u    897.0569u
  gam eff    597.0299m    597.0299m    505.7716m    505.7716m    505.7716m
  gm          23.6234p      1.9252n     24.2134p    4.359e-19    4.359e-19
  gds          3.0898m     75.5837p    673.7093u     89.2506f     89.2506f
  gmb          9.5964p    718.4594p     10.5649p    1.515e-19    1.515e-19
  cdtot        3.8099f      1.1319f      3.5410f    873.1504a    873.1504a
  cgtot        7.8400f      4.0102f      7.5287f      3.7985f      3.7985f
  cstot        2.0401f      1.1320f      1.7767f    873.1504a    873.1504a
  cbtot        1.8286f      1.8383f      1.5290f      2.1050f      2.1050f
  cgs          3.8834f      1.0823f      3.8071f    871.2389a    871.2389a
  cgd          3.7306f      1.0897f      3.5578f    822.3009a    822.3009a



 subckt     xfadc.xi5    xfadc.xi5    xfadc.xi5    xfadc.xi5    xfadc.xi5 
 element    3:mmp12      3:mmn7       3:mmn6       3:mmn1       3:mmn3    
 model      0:cmosp      0:cmosn      0:cmosn      0:cmosn      0:cmosn   
 region         Linear       Cutoff       Linear       Linear       Linear
  id        -120.0599p     90.0599p    105.0599p    105.0599p     63.2254p
  ibs          0.           0.           0.           0.           0.     
  ibd          0.           0.           0.           0.           0.     
  vgs         -3.0000     -38.5680n      3.0000       1.8462       1.5000 
  vds       -178.2073n      3.0000      34.0025n      4.5655n      3.4541n
  vbs          0.         -38.5680n     -3.4541n      0.           0.     
  vth       -790.8746m    502.2059m    578.3298m    671.5272m    671.5272m
  vdsat       -1.5576      37.4830m    863.9024m    559.4160m    439.2548m
  vod         -2.2091    -502.2059m      2.4217       1.1746     828.4728m
  beta       718.5580u      2.4861m      2.0791m     30.6909m     31.7696m
  gam eff    505.7716m    597.0299m    597.0299m    597.2767m    597.2767m
  gm          24.2134p      1.9252n     23.6234p     55.1480p     53.0141p
  gds        673.7093u     75.5837p      3.0898m     23.0116m     18.3047m
  gmb         10.5649p    718.4593p      9.5964p     17.7670p     16.4179p
  cdtot        3.5410f      1.1319f      3.8099f     51.5579f     51.0596f
  cgtot        7.5287f      4.0102f      7.8400f    108.1498f    108.1908f
  cstot        1.7767f      1.1320f      2.0401f     29.0965f     29.5949f
  cbtot        1.5290f      1.8383f      1.8286f     25.2455f     25.2782f
  cgs          3.8071f      1.0823f      3.8834f     54.1690f     54.6778f
  cgd          3.5578f      1.0897f      3.7306f     50.8109f     50.3102f



 subckt     xfadc.xi5    xfadc.xi5    xfadc.xi5    xfadc.xi5    xfadc.xi4 
 element    3:mmn2       3:mmn4       3:mmn5       3:mmn8       4:mmp9    
 model      0:cmosn      0:cmosn      0:cmosn      0:cmosn      0:cmosp   
 region         Cutoff       Linear       Linear       Cutoff       Linear
  id           3.1978a     41.8344p    105.0599p     90.0599p   -120.0599p
  ibs          0.           0.           0.           0.           0.     
  ibd          0.           0.           0.           0.           0.     
  vgs          0.           1.1538       3.0000     -37.4565n     -3.0000 
  vds          4.5655n      3.4541n     34.0025n      3.0000    -178.2072n
  vbs          0.           0.          -4.5655n    -37.4565n      0.     
  vth        671.5272m    671.5272m    578.3298m    502.2059m   -790.8746m
  vdsat       37.8473m    299.9544m    863.9024m     37.4830m     -1.5576 
  vod       -671.5272m    482.3190m      2.4217    -502.2059m     -2.2091 
  beta        33.7006m     32.7155m      2.0791m      2.4861m    718.5580u
  gam eff    597.2767m    597.2767m    597.0299m    597.0299m    505.7716m
  gm          68.4907a     73.2430p     23.6234p      1.9252n     24.2134p
  gds        700.4198p     12.1117m      3.0898m     75.5837p    673.7093u
  gmb         29.7867a     21.1954p      9.5964p    718.4594p     10.5649p
  cdtot       15.6076f     49.9004f      3.8099f      1.1319f      3.5410f
  cgtot       57.6172f    108.2537f      7.8400f      4.0102f      7.5287f
  cstot       15.6076f     30.7526f      2.0401f      1.1320f      1.7767f
  cbtot       27.4140f     25.3322f      1.8286f      1.8383f      1.5290f
  cgs         15.2327f     55.8518f      3.8834f      1.0823f      3.8071f
  cgd         14.9705f     49.1448f      3.7306f      1.0897f      3.5578f



 subckt     xfadc.xi4    xfadc.xi4    xfadc.xi4    xfadc.xi4    xfadc.xi4 
 element    4:mmp11      4:mmp10      4:mmp12      4:mmn7       4:mmn6    
 model      0:cmosp      0:cmosp      0:cmosp      0:cmosn      0:cmosn   
 region         Cutoff       Cutoff       Linear       Cutoff       Linear
  id        -1.591e-20   -1.591e-20   -120.0599p     90.0599p    105.0599p
  ibs          0.           0.           0.           0.           0.     
  ibd          0.           0.           0.           0.           0.     
  vgs       -178.2072n   -178.2073n     -3.0000     -38.7133n      3.0000 
  vds       -178.2073n   -178.2072n   -178.2073n      3.0000      34.0025n
  vbs          0.           0.           0.         -38.7133n     -3.3248n
  vth       -790.8746m   -790.8746m   -790.8746m    502.2059m    578.3298m
  vdsat      -39.9364m    -39.9364m     -1.5576      37.4830m    863.9024m
  vod        790.8744m    790.8744m     -2.2091    -502.2059m      2.4217 
  beta       897.0569u    897.0569u    718.5580u      2.4861m      2.0791m
  gam eff    505.7716m    505.7716m    505.7716m    597.0299m    597.0299m
  gm         4.359e-19    4.359e-19     24.2134p      1.9252n     23.6234p
  gds         89.2506f     89.2506f    673.7093u     75.5837p      3.0898m
  gmb        1.515e-19    1.515e-19     10.5649p    718.4593p      9.5964p
  cdtot      873.1504a    873.1504a      3.5410f      1.1319f      3.8099f
  cgtot        3.7985f      3.7985f      7.5287f      4.0102f      7.8400f
  cstot      873.1504a    873.1504a      1.7767f      1.1320f      2.0401f
  cbtot        2.1050f      2.1050f      1.5290f      1.8383f      1.8286f
  cgs        871.2389a    871.2389a      3.8071f      1.0823f      3.8834f
  cgd        822.3009a    822.3009a      3.5578f      1.0897f      3.7306f



 subckt     xfadc.xi4    xfadc.xi4    xfadc.xi4    xfadc.xi4    xfadc.xi4 
 element    4:mmn1       4:mmn3       4:mmn2       4:mmn4       4:mmn5    
 model      0:cmosn      0:cmosn      0:cmosn      0:cmosn      0:cmosn   
 region         Linear       Linear       Cutoff       Linear       Linear
  id         105.0599p     60.8586p      3.2996a     44.2012p    105.0599p
  ibs          0.           0.           0.           0.           0.     
  ibd          0.           0.           0.           0.           0.     
  vgs          1.7885       1.5000       0.           1.2115       3.0000 
  vds          4.7108n      3.3248n      4.7108n      3.3248n     34.0025n
  vbs          0.           0.           0.           0.          -4.7108n
  vth        671.5272m    671.5272m    671.5272m    671.5272m    578.3298m
  vdsat      540.1470m    439.2548m     37.8473m    325.5396m    863.9024m
  vod          1.1169     828.4728m   -671.5272m    540.0113m      2.4217 
  beta        30.8790m     31.7696m     33.7006m     32.5669m      2.0791m
  gam eff    597.2767m    597.2767m    597.2767m    597.2767m    597.0299m
  gm          59.0475p     51.0295p     70.6708a     65.9729p     23.6234p
  gds         22.3017m     18.3047m    700.4198p     13.2946m      3.0898m
  gmb         18.9028p     15.8033p     30.7348a     19.4230p      9.5964p
  cdtot       51.4956f     51.0596f     15.6076f     50.1897f      3.8099f
  cgtot      108.1555f    108.1908f     57.6172f    108.2419f      7.8400f
  cstot       29.1589f     29.5949f     15.6076f     30.4643f      2.0401f
  cbtot       25.2499f     25.2782f     27.4140f     25.3211f      1.8286f
  cgs         54.2328f     54.6778f     15.2327f     55.5604f      3.8834f
  cgd         50.7482f     50.3102f     14.9705f     49.4357f      3.7306f



 subckt     xfadc.xi4    xfadc.xi3    xfadc.xi3    xfadc.xi3    xfadc.xi3 
 element    4:mmn8       5:mmp9       5:mmp11      5:mmp10      5:mmp12   
 model      0:cmosn      0:cmosp      0:cmosp      0:cmosp      0:cmosp   
 region         Cutoff       Linear       Cutoff       Cutoff       Linear
  id          90.0599p   -120.0599p   -1.591e-20   -1.591e-20   -120.0599p
  ibs          0.           0.           0.           0.           0.     
  ibd          0.           0.           0.           0.           0.     
  vgs        -37.3272n     -3.0000    -178.2072n   -178.2073n     -3.0000 
  vds          3.0000    -178.2072n   -178.2073n   -178.2072n   -178.2073n
  vbs        -37.3272n      0.           0.           0.           0.     
  vth        502.2059m   -790.8746m   -790.8746m   -790.8746m   -790.8746m
  vdsat       37.4830m     -1.5576     -39.9364m    -39.9364m     -1.5576 
  vod       -502.2059m     -2.2091     790.8744m    790.8744m     -2.2091 
  beta         2.4861m    718.5580u    897.0569u    897.0569u    718.5580u
  gam eff    597.0299m    505.7716m    505.7716m    505.7716m    505.7716m
  gm           1.9252n     24.2134p    4.359e-19    4.359e-19     24.2134p
  gds         75.5837p    673.7093u     89.2506f     89.2506f    673.7093u
  gmb        718.4594p     10.5649p    1.515e-19    1.515e-19     10.5649p
  cdtot        1.1319f      3.5410f    873.1504a    873.1504a      3.5410f
  cgtot        4.0102f      7.5287f      3.7985f      3.7985f      7.5287f
  cstot        1.1320f      1.7767f    873.1504a    873.1504a      1.7767f
  cbtot        1.8383f      1.5290f      2.1050f      2.1050f      1.5290f
  cgs          1.0823f      3.8071f    871.2389a    871.2389a      3.8071f
  cgd          1.0897f      3.5578f    822.3009a    822.3009a      3.5578f



 subckt     xfadc.xi3    xfadc.xi3    xfadc.xi3    xfadc.xi3    xfadc.xi3 
 element    5:mmn7       5:mmn6       5:mmn1       5:mmn3       5:mmn2    
 model      0:cmosn      0:cmosn      0:cmosn      0:cmosn      0:cmosn   
 region         Cutoff       Linear       Linear       Linear       Cutoff
  id          90.0599p    105.0599p    105.0599p     58.7920p      3.4123a
  ibs          0.           0.           0.           0.           0.     
  ibd          0.           0.           0.           0.           0.     
  vgs        -38.8743n      3.0000       1.7308       1.5000       0.     
  vds          3.0000      34.0025n      4.8718n      3.2118n      4.8718n
  vbs        -38.8743n     -3.2118n      0.           0.           0.     
  vth        502.2059m    578.3298m    671.5272m    671.5272m    671.5272m
  vdsat       37.4830m    863.9024m    520.6210m    439.2548m     37.8473m
  vod       -502.2059m      2.4217       1.0592     828.4728m   -671.5272m
  beta         2.4861m      2.0791m     31.0640m     31.7696m     33.7006m
  gam eff    597.0299m    597.0299m    597.2767m    597.2767m    597.2767m
  gm           1.9252n     23.6234p     63.4330p     49.2967p     73.0861a
  gds         75.5837p      3.0898m     21.5647m     18.3047m    700.4198p
  gmb        718.4593p      9.5964p     20.1774p     15.2667p     31.7852a
  cdtot        1.1319f      3.8099f     51.4267f     51.0596f     15.6076f
  cgtot        4.0102f      7.8400f    108.1616f    108.1908f     57.6172f
  cstot        1.1320f      2.0401f     29.2278f     29.5949f     15.6076f
  cbtot        1.8383f      1.8286f     25.2547f     25.2782f     27.4140f
  cgs          1.0823f      3.8834f     54.3033f     54.6778f     15.2327f
  cgd          1.0897f      3.7306f     50.6790f     50.3102f     14.9705f



 subckt     xfadc.xi3    xfadc.xi3    xfadc.xi3    xfadc.xi2    xfadc.xi2 
 element    5:mmn4       5:mmn5       5:mmn8       6:mmp9       6:mmp11   
 model      0:cmosn      0:cmosn      0:cmosn      0:cmosp      0:cmosp   
 region         Linear       Linear       Cutoff       Linear       Cutoff
  id          46.2679p    105.0599p     90.0599p   -120.0599p   -1.591e-20
  ibs          0.           0.           0.           0.           0.     
  ibd          0.           0.           0.           0.           0.     
  vgs          1.2692       3.0000     -37.2143n     -3.0000    -178.2072n
  vds          3.2118n     34.0025n      3.0000    -178.2072n   -178.2073n
  vbs          0.          -4.8718n    -37.2143n      0.           0.     
  vth        671.5272m    578.3298m    502.2059m   -790.8746m   -790.8746m
  vdsat      349.9081m    863.9024m     37.4830m     -1.5576     -39.9364m
  vod        597.7036m      2.4217    -502.2059m     -2.2091     790.8744m
  beta        32.4149m      2.0791m      2.4861m    718.5580u    897.0569u
  gam eff    597.2767m    597.0299m    597.0299m    505.7716m    505.7716m
  gm          60.0450p     23.6234p      1.9252n     24.2134p    4.359e-19
  gds         14.4054m      3.0898m     75.5837p    673.7093u     89.2506f
  gmb         17.9248p      9.5964p    718.4594p     10.5649p    1.515e-19
  cdtot       50.4266f      3.8099f      1.1319f      3.5410f    873.1504a
  cgtot      108.2302f      7.8400f      4.0102f      7.5287f      3.7985f
  cstot       30.2277f      2.0401f      1.1320f      1.7767f    873.1504a
  cbtot       25.3110f      1.8286f      1.8383f      1.5290f      2.1050f
  cgs         55.3207f      3.8834f      1.0823f      3.8071f    871.2389a
  cgd         49.6740f      3.7306f      1.0897f      3.5578f    822.3009a



 subckt     xfadc.xi2    xfadc.xi2    xfadc.xi2    xfadc.xi2    xfadc.xi2 
 element    6:mmp10      6:mmp12      6:mmn7       6:mmn6       6:mmn1    
 model      0:cmosp      0:cmosp      0:cmosn      0:cmosn      0:cmosn   
 region         Cutoff       Linear       Cutoff       Linear       Linear
  id        -1.591e-20   -120.0599p     90.0599p    105.0599p    105.0599p
  ibs          0.           0.           0.           0.           0.     
  ibd          0.           0.           0.           0.           0.     
  vgs       -178.2073n     -3.0000     -39.0537n      3.0000       1.6731 
  vds       -178.2072n   -178.2073n      3.0000      34.0025n      5.0513n
  vbs          0.           0.         -39.0537n     -3.1120n      0.     
  vth       -790.8746m   -790.8746m    502.2059m    578.3298m    671.5272m
  vdsat      -39.9364m     -1.5576      37.4830m    863.9024m    500.8078m
  vod        790.8744m     -2.2091    -502.2059m      2.4217       1.0015 
  beta       897.0569u    718.5580u      2.4861m      2.0791m     31.2457m
  gam eff    505.7716m    505.7716m    597.0299m    597.0299m    597.2767m
  gm         4.359e-19     24.2134p      1.9252n     23.6234p     68.3954p
  gds         89.2506f    673.7093u     75.5837p      3.0898m     20.7987m
  gmb        1.515e-19     10.5649p    718.4593p      9.5964p     21.6161p
  cdtot      873.1504a      3.5410f      1.1319f      3.8099f     51.3501f
  cgtot        3.7985f      7.5287f      4.0102f      7.8400f    108.1682f
  cstot      873.1504a      1.7767f      1.1320f      2.0401f     29.3043f
  cbtot        2.1050f      1.5290f      1.8383f      1.8286f     25.2599f
  cgs        871.2389a      3.8071f      1.0823f      3.8834f     54.3815f
  cgd        822.3009a      3.5578f      1.0897f      3.7306f     50.6022f



 subckt     xfadc.xi2    xfadc.xi2    xfadc.xi2    xfadc.xi2    xfadc.xi2 
 element    6:mmn3       6:mmn2       6:mmn4       6:mmn5       6:mmn8    
 model      0:cmosn      0:cmosn      0:cmosn      0:cmosn      0:cmosn   
 region         Linear       Cutoff       Linear       Linear       Cutoff
  id          56.9645p      3.5380a     48.0954p    105.0599p     90.0599p
  ibs          0.           0.           0.           0.           0.     
  ibd          0.           0.           0.           0.           0.     
  vgs          1.5000       0.           1.3269       3.0000     -37.1145n
  vds          3.1120n      5.0513n      3.1120n     34.0025n      3.0000 
  vbs          0.           0.           0.          -5.0513n    -37.1145n
  vth        671.5272m    671.5272m    671.5272m    578.3298m    502.2059m
  vdsat      439.2548m     37.8473m    373.3052m    863.9024m     37.4830m
  vod        828.4728m   -671.5272m    655.3959m      2.4217    -502.2059m
  beta        31.7696m     33.7006m     32.2593m      2.0791m      2.4861m
  gam eff    597.2767m    597.2767m    597.2767m    597.0299m    597.0299m
  gm          47.7643p     75.7778a     55.1017p     23.6234p      1.9252n
  gds         18.3047m    700.4197p     15.4548m      3.0898m     75.5837p
  gmb         14.7921p     32.9558a     16.6367p      9.5964p    718.4594p
  cdtot       51.0596f     15.6076f     50.6243f      3.8099f      1.1319f
  cgtot      108.1908f     57.6172f    108.2192f      7.8400f      4.0102f
  cstot       29.5949f     15.6076f     30.0301f      2.0401f      1.1320f
  cbtot       25.2782f     27.4140f     25.3017f      1.8286f      1.8383f
  cgs         54.6778f     15.2327f     55.1203f      3.8834f      1.0823f
  cgd         50.3102f     14.9705f     49.8727f      3.7306f      1.0897f



 subckt     xfadc.xi1    xfadc.xi1    xfadc.xi1    xfadc.xi1    xfadc.xi1 
 element    7:mmp9       7:mmp11      7:mmp10      7:mmp12      7:mmn7    
 model      0:cmosp      0:cmosp      0:cmosp      0:cmosp      0:cmosn   
 region         Linear       Cutoff       Cutoff       Linear       Cutoff
  id        -120.0599p   -1.591e-20   -1.591e-20   -120.0599p     90.0599p
  ibs          0.           0.           0.           0.           0.     
  ibd          0.           0.           0.           0.           0.     
  vgs         -3.0000    -178.2072n   -178.2073n     -3.0000     -39.2550n
  vds       -178.2072n   -178.2073n   -178.2072n   -178.2073n      3.0000 
  vbs          0.           0.           0.           0.         -39.2550n
  vth       -790.8746m   -790.8746m   -790.8746m   -790.8746m    502.2059m
  vdsat       -1.5576     -39.9364m    -39.9364m     -1.5576      37.4830m
  vod         -2.2091     790.8744m    790.8744m     -2.2091    -502.2059m
  beta       718.5580u    897.0569u    897.0569u    718.5580u      2.4861m
  gam eff    505.7716m    505.7716m    505.7716m    505.7716m    597.0299m
  gm          24.2134p    4.359e-19    4.359e-19     24.2134p      1.9252n
  gds        673.7093u     89.2506f     89.2506f    673.7093u     75.5837p
  gmb         10.5649p    1.515e-19    1.515e-19     10.5649p    718.4593p
  cdtot        3.5410f    873.1504a    873.1504a      3.5410f      1.1319f
  cgtot        7.5287f      3.7985f      3.7985f      7.5287f      4.0102f
  cstot        1.7767f    873.1504a    873.1504a      1.7767f      1.1320f
  cbtot        1.5290f      2.1050f      2.1050f      1.5290f      1.8383f
  cgs          3.8071f    871.2389a    871.2389a      3.8071f      1.0823f
  cgd          3.5578f    822.3009a    822.3009a      3.5578f      1.0897f



 subckt     xfadc.xi1    xfadc.xi1    xfadc.xi1    xfadc.xi1    xfadc.xi1 
 element    7:mmn6       7:mmn1       7:mmn3       7:mmn2       7:mmn4    
 model      0:cmosn      0:cmosn      0:cmosn      0:cmosn      0:cmosn   
 region         Linear       Linear       Linear       Cutoff       Linear
  id         105.0599p    105.0599p     55.3322p      3.6790a     49.7277p
  ibs          0.           0.           0.           0.           0.     
  ibd          0.           0.           0.           0.           0.     
  vgs          3.0000       1.6154       1.5000       0.           1.3846 
  vds         34.0025n      5.2526n      3.0228n      5.2526n      3.0228n
  vbs         -3.0228n      0.           0.           0.           0.     
  vth        578.3298m    671.5272m    671.5272m    671.5272m    671.5272m
  vdsat      863.9024m    480.6717m    439.2548m     37.8473m    395.9115m
  vod          2.4217     943.8574m    828.4728m   -671.5272m    713.0882m
  beta         2.0791m     31.4240m     31.7696m     33.7006m     32.1000m
  gam eff    597.0299m    597.2767m    597.2767m    597.2767m    597.2767m
  gm          23.6234p     74.0506p     46.3956p     78.7975a     50.8928p
  gds          3.0898m     20.0017m     18.3047m    700.4197p     16.4507m
  gmb          9.5964p     23.2506p     14.3683p     34.2691a     15.5131p
  cdtot        3.8099f     51.2646f     51.0596f     15.6076f     50.7916f
  cgtot        7.8400f    108.1752f    108.1908f     57.6172f    108.2090f
  cstot        2.0401f     29.3898f     29.5949f     15.6076f     29.8628f
  cbtot        1.8286f     25.2656f     25.2782f     27.4140f     25.2932f
  cgs          3.8834f     54.4688f     54.6778f     15.2327f     54.9504f
  cgd          3.7306f     50.5163f     50.3102f     14.9705f     50.0409f



 subckt     xfadc.xi1    xfadc.xi1    xfadc.xi0    xfadc.xi0    xfadc.xi0 
 element    7:mmn5       7:mmn8       8:mmp9       8:mmp11      8:mmp10   
 model      0:cmosn      0:cmosn      0:cmosp      0:cmosp      0:cmosp   
 region         Linear       Cutoff       Linear       Cutoff       Cutoff
  id         105.0599p     90.0599p   -120.0599p   -1.591e-20   -1.591e-20
  ibs          0.           0.           0.           0.           0.     
  ibd          0.           0.           0.           0.           0.     
  vgs          3.0000     -37.0253n     -3.0000    -178.2072n   -178.2073n
  vds         34.0025n      3.0000    -178.2072n   -178.2073n   -178.2072n
  vbs         -5.2526n    -37.0253n      0.           0.           0.     
  vth        578.3298m    502.2059m   -790.8746m   -790.8746m   -790.8746m
  vdsat      863.9024m     37.4830m     -1.5576     -39.9364m    -39.9364m
  vod          2.4217    -502.2059m     -2.2091     790.8744m    790.8744m
  beta         2.0791m      2.4861m    718.5580u    897.0569u    897.0569u
  gam eff    597.0299m    597.0299m    505.7716m    505.7716m    505.7716m
  gm          23.6234p      1.9252n     24.2134p    4.359e-19    4.359e-19
  gds          3.0898m     75.5837p    673.7093u     89.2506f     89.2506f
  gmb          9.5964p    718.4594p     10.5649p    1.515e-19    1.515e-19
  cdtot        3.8099f      1.1319f      3.5410f    873.1504a    873.1504a
  cgtot        7.8400f      4.0102f      7.5287f      3.7985f      3.7985f
  cstot        2.0401f      1.1320f      1.7767f    873.1504a    873.1504a
  cbtot        1.8286f      1.8383f      1.5290f      2.1050f      2.1050f
  cgs          3.8834f      1.0823f      3.8071f    871.2389a    871.2389a
  cgd          3.7306f      1.0897f      3.5578f    822.3009a    822.3009a



 subckt     xfadc.xi0    xfadc.xi0    xfadc.xi0    xfadc.xi0    xfadc.xi0 
 element    8:mmp12      8:mmn7       8:mmn6       8:mmn1       8:mmn3    
 model      0:cmosp      0:cmosn      0:cmosn      0:cmosn      0:cmosn   
 region         Linear       Cutoff       Linear       Linear       Linear
  id        -120.0599p     90.0599p    105.0599p    105.0599p     53.8623p
  ibs          0.           0.           0.           0.           0.     
  ibd          0.           0.           0.           0.           0.     
  vgs         -3.0000     -39.4825n      3.0000       1.5577       1.5000 
  vds       -178.2073n      3.0000      34.0025n      5.4801n      2.9425n
  vbs          0.         -39.4825n     -2.9425n      0.           0.     
  vth       -790.8746m    502.2059m    578.3298m    671.5272m    671.5272m
  vdsat       -1.5576      37.4830m    863.9024m    460.1709m    439.2548m
  vod         -2.2091    -502.2059m      2.4217     886.1651m    828.4728m
  beta       718.5580u      2.4861m      2.0791m     31.5987m     31.7696m
  gam eff    505.7716m    597.0299m    597.0299m    597.2767m    597.2767m
  gm          24.2134p      1.9252n     23.6234p     80.5492p     45.1632p
  gds        673.7093u     75.5837p      3.0898m     19.1712m     18.3047m
  gmb         10.5649p    718.4593p      9.5964p     25.1214p     13.9866p
  cdtot        3.5410f      1.1319f      3.8099f     51.1685f     51.0596f
  cgtot        7.5287f      4.0102f      7.8400f    108.1827f    108.1908f
  cstot        1.7767f      1.1320f      2.0401f     29.4860f     29.5949f
  cbtot        1.5290f      1.8383f      1.8286f     25.2716f     25.2782f
  cgs          3.8071f      1.0823f      3.8834f     54.5669f     54.6778f
  cgd          3.5578f      1.0897f      3.7306f     50.4197f     50.3102f



 subckt     xfadc.xi0    xfadc.xi0    xfadc.xi0    xfadc.xi0    xfadc.xi7 
 element    8:mmn2       8:mmn4       8:mmn5       8:mmn8       9:mmp9    
 model      0:cmosn      0:cmosn      0:cmosn      0:cmosn      0:cmosp   
 region         Cutoff       Linear       Linear       Cutoff       Linear
  id           3.8384a     51.1976p    105.0599p     90.0599p   -120.0599p
  ibs          0.           0.           0.           0.           0.     
  ibd          0.           0.           0.           0.           0.     
  vgs          0.           1.4423       3.0000     -36.9450n     -3.0000 
  vds          5.4801n      2.9425n     34.0025n      3.0000    -178.2072n
  vbs          0.           0.          -5.4801n    -36.9450n      0.     
  vth        671.5272m    671.5272m    578.3298m    502.2059m   -790.8746m
  vdsat       37.8473m    417.8611m    863.9024m     37.4830m     -1.5576 
  vod       -671.5272m    770.7805m      2.4217    -502.2059m     -2.2091 
  beta        33.7006m     31.9367m      2.0791m      2.4861m    718.5580u
  gam eff    597.2767m    597.2767m    597.0299m    597.0299m    505.7716m
  gm          82.2108a     47.2471p     23.6234p      1.9252n     24.2134p
  gds        700.4197p     17.3991m      3.0898m     75.5837p    673.7093u
  gmb         35.7535a     14.5222p      9.5964p    718.4594p     10.5649p
  cdtot       15.6076f     50.9351f      3.8099f      1.1319f      3.5410f
  cgtot       57.6172f    108.1996f      7.8400f      4.0102f      7.5287f
  cstot       15.6076f     29.7193f      2.0401f      1.1320f      1.7767f
  cbtot       27.4140f     25.2854f      1.8286f      1.8383f      1.5290f
  cgs         15.2327f     54.8045f      3.8834f      1.0823f      3.8071f
  cgd         14.9705f     50.1851f      3.7306f      1.0897f      3.5578f



 subckt     xfadc.xi7    xfadc.xi7    xfadc.xi7    xfadc.xi7    xfadc.xi7 
 element    9:mmp11      9:mmp10      9:mmp12      9:mmn7       9:mmn6    
 model      0:cmosp      0:cmosp      0:cmosp      0:cmosn      0:cmosn   
 region         Cutoff       Cutoff       Linear       Cutoff       Linear
  id        -1.591e-20   -1.591e-20   -120.0599p     90.0599p    105.0599p
  ibs          0.           0.           0.           0.           0.     
  ibd          0.           0.           0.           0.           0.     
  vgs       -178.2072n   -178.2073n     -3.0000     -39.7420n      3.0000 
  vds       -178.2073n   -178.2072n   -178.2073n      3.0000      34.0025n
  vbs          0.           0.           0.         -39.7420n     -2.8697n
  vth       -790.8746m   -790.8746m   -790.8746m    502.2059m    578.3298m
  vdsat      -39.9364m    -39.9364m     -1.5576      37.4830m    863.9024m
  vod        790.8744m    790.8744m     -2.2091    -502.2059m      2.4217 
  beta       897.0569u    897.0569u    718.5580u      2.4861m      2.0791m
  gam eff    505.7716m    505.7716m    505.7716m    597.0299m    597.0299m
  gm         4.359e-19    4.359e-19     24.2134p      1.9252n     23.6234p
  gds         89.2506f     89.2506f    673.7093u     75.5837p      3.0898m
  gmb        1.515e-19    1.515e-19     10.5649p    718.4593p      9.5964p
  cdtot      873.1504a    873.1504a      3.5410f      1.1319f      3.8099f
  cgtot        3.7985f      3.7985f      7.5287f      4.0102f      7.8400f
  cstot      873.1504a    873.1504a      1.7767f      1.1320f      2.0401f
  cbtot        2.1050f      2.1050f      1.5290f      1.8383f      1.8286f
  cgs        871.2389a    871.2389a      3.8071f      1.0823f      3.8834f
  cgd        822.3009a    822.3009a      3.5578f      1.0897f      3.7306f



 subckt     xfadc.xi7    xfadc.xi7    xfadc.xi7    xfadc.xi7    xfadc.xi7 
 element    9:mmn1       9:mmn3       9:mmn2       9:mmn4       9:mmn5    
 model      0:cmosn      0:cmosn      0:cmosn      0:cmosn      0:cmosn   
 region         Linear       Linear       Cutoff       Linear       Linear
  id         105.0599p     52.5299p      4.0201a     52.5299p    105.0599p
  ibs          0.           0.           0.           0.           0.     
  ibd          0.           0.           0.           0.           0.     
  vgs          1.5000       1.5000       0.           1.5000       3.0000 
  vds          5.7395n      2.8697n      5.7395n      2.8697n     34.0025n
  vbs          0.           0.           0.           0.          -5.7395n
  vth        671.5272m    671.5272m    671.5272m    671.5272m    578.3298m
  vdsat      439.2548m    439.2548m     37.8473m    439.2548m    863.9024m
  vod        828.4728m    828.4728m   -671.5272m    828.4728m      2.4217 
  beta        31.7696m     31.7696m     33.7006m     31.7696m      2.0791m
  gam eff    597.2767m    597.2767m    597.2767m    597.2767m    597.0299m
  gm          88.0919p     44.0460p     86.1024a     44.0460p     23.6234p
  gds         18.3047m     18.3047m    700.4197p     18.3047m      3.0898m
  gmb         27.2812p     13.6406p     37.4460a     13.6406p      9.5964p
  cdtot       51.0596f     51.0596f     15.6076f     51.0596f      3.8099f
  cgtot      108.1908f    108.1908f     57.6172f    108.1908f      7.8400f
  cstot       29.5949f     29.5949f     15.6076f     29.5949f      2.0401f
  cbtot       25.2782f     25.2782f     27.4140f     25.2782f      1.8286f
  cgs         54.6778f     54.6778f     15.2327f     54.6778f      3.8834f
  cgd         50.3102f     50.3102f     14.9705f     50.3102f      3.7306f



 subckt     xfadc.xi7    xfadc.xi8    xfadc.xi8    xfadc.xi8    xfadc.xi8 
 element    9:mmn8      10:mmp9      10:mmp11     10:mmp10     10:mmp12   
 model      0:cmosn      0:cmosp      0:cmosp      0:cmosp      0:cmosp   
 region         Cutoff       Linear       Cutoff       Cutoff       Linear
  id          90.0599p   -120.0599p   -1.591e-20   -1.591e-20   -120.0599p
  ibs          0.           0.           0.           0.           0.     
  ibd          0.           0.           0.           0.           0.     
  vgs        -36.8722n     -3.0000    -178.2072n   -178.2073n     -3.0000 
  vds          3.0000    -178.2072n   -178.2073n   -178.2072n   -178.2073n
  vbs        -36.8722n      0.           0.           0.           0.     
  vth        502.2059m   -790.8746m   -790.8746m   -790.8746m   -790.8746m
  vdsat       37.4830m     -1.5576     -39.9364m    -39.9364m     -1.5576 
  vod       -502.2059m     -2.2091     790.8744m    790.8744m     -2.2091 
  beta         2.4861m    718.5580u    897.0569u    897.0569u    718.5580u
  gam eff    597.0299m    505.7716m    505.7716m    505.7716m    505.7716m
  gm           1.9252n     24.2134p    4.359e-19    4.359e-19     24.2134p
  gds         75.5837p    673.7093u     89.2506f     89.2506f    673.7093u
  gmb        718.4594p     10.5649p    1.515e-19    1.515e-19     10.5649p
  cdtot        1.1319f      3.5410f    873.1504a    873.1504a      3.5410f
  cgtot        4.0102f      7.5287f      3.7985f      3.7985f      7.5287f
  cstot        1.1320f      1.7767f    873.1504a    873.1504a      1.7767f
  cbtot        1.8383f      1.5290f      2.1050f      2.1050f      1.5290f
  cgs          1.0823f      3.8071f    871.2389a    871.2389a      3.8071f
  cgd          1.0897f      3.5578f    822.3009a    822.3009a      3.5578f



 subckt     xfadc.xi8    xfadc.xi8    xfadc.xi8    xfadc.xi8    xfadc.xi8 
 element   10:mmn7      10:mmn6      10:mmn1      10:mmn3      10:mmn2    
 model      0:cmosn      0:cmosn      0:cmosn      0:cmosn      0:cmosn   
 region         Cutoff       Linear       Linear       Linear       Cutoff
  id          90.0599p    105.0599p    105.0599p     51.3154p      4.2293a
  ibs          0.           0.           0.           0.           0.     
  ibd          0.           0.           0.           0.           0.     
  vgs        -40.0407n      3.0000       1.4423       1.5000       0.     
  vds          3.0000      34.0025n      6.0382n      2.8034n      6.0382n
  vbs        -40.0407n     -2.8034n      0.           0.           0.     
  vth        502.2059m    578.3298m    671.5272m    671.5272m    671.5272m
  vdsat       37.4830m    863.9024m    417.8611m    439.2548m     37.8473m
  vod       -502.2059m      2.4217     770.7805m    828.4728m   -671.5272m
  beta         2.4861m      2.0791m     31.9367m     31.7696m     33.7006m
  gam eff    597.0299m    597.0299m    597.2767m    597.2767m    597.2767m
  gm           1.9252n     23.6234p     96.9533p     43.0276p     90.5839a
  gds         75.5837p      3.0898m     17.3991m     18.3047m    700.4197p
  gmb        718.4593p      9.5964p     29.8002p     13.3252p     39.3950a
  cdtot        1.1319f      3.8099f     50.9351f     51.0596f     15.6076f
  cgtot        4.0102f      7.8400f    108.1996f    108.1908f     57.6172f
  cstot        1.1320f      2.0401f     29.7193f     29.5949f     15.6076f
  cbtot        1.8383f      1.8286f     25.2854f     25.2782f     27.4140f
  cgs          1.0823f      3.8834f     54.8045f     54.6778f     15.2327f
  cgd          1.0897f      3.7306f     50.1851f     50.3102f     14.9705f



 subckt     xfadc.xi8    xfadc.xi8    xfadc.xi8    xfadc.xi9    xfadc.xi9 
 element   10:mmn4      10:mmn5      10:mmn8      11:mmp9      11:mmp11   
 model      0:cmosn      0:cmosn      0:cmosn      0:cmosp      0:cmosp   
 region         Linear       Linear       Cutoff       Linear       Cutoff
  id          53.7445p    105.0599p     90.0599p   -120.0599p   -1.591e-20
  ibs          0.           0.           0.           0.           0.     
  ibd          0.           0.           0.           0.           0.     
  vgs          1.5577       3.0000     -36.8059n     -3.0000    -178.2072n
  vds          2.8034n     34.0025n      3.0000    -178.2072n   -178.2073n
  vbs          0.          -6.0382n    -36.8059n      0.           0.     
  vth        671.5272m    578.3298m    502.2059m   -790.8746m   -790.8746m
  vdsat      460.1709m    863.9024m     37.4830m     -1.5576     -39.9364m
  vod        886.1651m      2.4217    -502.2059m     -2.2091     790.8744m
  beta        31.5987m      2.0791m      2.4861m    718.5580u    897.0569u
  gam eff    597.2767m    597.0299m    597.0299m    505.7716m    505.7716m
  gm          41.2058p     23.6234p      1.9252n     24.2134p    4.359e-19
  gds         19.1712m      3.0898m     75.5837p    673.7093u     89.2506f
  gmb         12.8511p      9.5964p    718.4594p     10.5649p    1.515e-19
  cdtot       51.1685f      3.8099f      1.1319f      3.5410f    873.1504a
  cgtot      108.1827f      7.8400f      4.0102f      7.5287f      3.7985f
  cstot       29.4860f      2.0401f      1.1320f      1.7767f    873.1504a
  cbtot       25.2716f      1.8286f      1.8383f      1.5290f      2.1050f
  cgs         54.5669f      3.8834f      1.0823f      3.8071f    871.2389a
  cgd         50.4197f      3.7306f      1.0897f      3.5578f    822.3009a



 subckt     xfadc.xi9    xfadc.xi9    xfadc.xi9    xfadc.xi9    xfadc.xi9 
 element   11:mmp10     11:mmp12     11:mmn7      11:mmn6      11:mmn1    
 model      0:cmosp      0:cmosp      0:cmosn      0:cmosn      0:cmosn   
 region         Cutoff       Linear       Cutoff       Linear       Linear
  id        -1.591e-20   -120.0599p     90.0599p    105.0599p    105.0599p
  ibs          0.           0.           0.           0.           0.     
  ibd          0.           0.           0.           0.           0.     
  vgs       -178.2073n     -3.0000     -40.3888n      3.0000       1.3846 
  vds       -178.2072n   -178.2073n      3.0000      34.0025n      6.3864n
  vbs          0.           0.         -40.3888n     -2.7426n      0.     
  vth       -790.8746m   -790.8746m    502.2059m    578.3298m    671.5272m
  vdsat      -39.9364m     -1.5576      37.4830m    863.9024m    395.9115m
  vod        790.8744m     -2.2091    -502.2059m      2.4217     713.0882m
  beta       897.0569u    718.5580u      2.4861m      2.0791m     32.1000m
  gam eff    505.7716m    505.7716m    597.0299m    597.0299m    597.2767m
  gm         4.359e-19     24.2134p      1.9252n     23.6234p    107.5215p
  gds         89.2506f    673.7093u     75.5837p      3.0898m     16.4507m
  gmb        1.515e-19     10.5649p    718.4593p      9.5964p     32.7746p
  cdtot      873.1504a      3.5410f      1.1319f      3.8099f     50.7916f
  cgtot        3.7985f      7.5287f      4.0102f      7.8400f    108.2090f
  cstot      873.1504a      1.7767f      1.1320f      2.0401f     29.8628f
  cbtot        2.1050f      1.5290f      1.8383f      1.8286f     25.2932f
  cgs        871.2389a      3.8071f      1.0823f      3.8834f     54.9504f
  cgd        822.3009a      3.5578f      1.0897f      3.7306f     50.0409f



 subckt     xfadc.xi9    xfadc.xi9    xfadc.xi9    xfadc.xi9    xfadc.xi9 
 element   11:mmn3      11:mmn2      11:mmn4      11:mmn5      11:mmn8    
 model      0:cmosn      0:cmosn      0:cmosn      0:cmosn      0:cmosn   
 region         Linear       Cutoff       Linear       Linear       Cutoff
  id          50.2029p      4.4731a     54.8570p    105.0599p     90.0599p
  ibs          0.           0.           0.           0.           0.     
  ibd          0.           0.           0.           0.           0.     
  vgs          1.5000       0.           1.6154       3.0000     -36.7451n
  vds          2.7426n      6.3864n      2.7426n     34.0025n      3.0000 
  vbs          0.           0.           0.          -6.3864n    -36.7451n
  vth        671.5272m    671.5272m    671.5272m    578.3298m    502.2059m
  vdsat      439.2548m     37.8473m    480.6717m    863.9024m     37.4830m
  vod        828.4728m   -671.5272m    943.8574m      2.4217    -502.2059m
  beta        31.7696m     33.7006m     31.4240m      2.0791m      2.4861m
  gam eff    597.2767m    597.2767m    597.2767m    597.0299m    597.0299m
  gm          42.0948p     95.8064a     38.6655p     23.6234p      1.9252n
  gds         18.3047m    700.4197p     20.0017m      3.0898m     75.5837p
  gmb         13.0363p     41.6663a     12.1403p      9.5964p    718.4594p
  cdtot       51.0596f     15.6076f     51.2646f      3.8099f      1.1319f
  cgtot      108.1908f     57.6172f    108.1752f      7.8400f      4.0102f
  cstot       29.5949f     15.6076f     29.3898f      2.0401f      1.1320f
  cbtot       25.2782f     27.4140f     25.2656f      1.8286f      1.8383f
  cgs         54.6778f     15.2327f     54.4688f      3.8834f      1.0823f
  cgd         50.3102f     14.9705f     50.5163f      3.7306f      1.0897f



 subckt     xfadc.xi10   xfadc.xi10   xfadc.xi10   xfadc.xi10   xfadc.xi10
 element   12:mmp9      12:mmp11     12:mmp10     12:mmp12     12:mmn7    
 model      0:cmosp      0:cmosp      0:cmosp      0:cmosp      0:cmosn   
 region         Linear       Cutoff       Cutoff       Linear       Cutoff
  id        -120.0599p   -1.591e-20   -1.591e-20   -120.0599p     90.0599p
  ibs          0.           0.           0.           0.           0.     
  ibd          0.           0.           0.           0.           0.     
  vgs         -3.0000    -178.2072n   -178.2073n     -3.0000     -40.8004n
  vds       -178.2072n   -178.2073n   -178.2072n   -178.2073n      3.0000 
  vbs          0.           0.           0.           0.         -40.8004n
  vth       -790.8746m   -790.8746m   -790.8746m   -790.8746m    502.2059m
[...]



 subckt     xfadc.xi27   xfadc.xi27   xfadc.xi27   xfadc.xi27   xfadc.xi27
 element  128:mm3      129:mm4      129:mm3      130:mm4      130:mm3     
 model      0:cmosn      0:cmosp      0:cmosn      0:cmosp      0:cmosn   
 region         Cutoff       Linear       Cutoff       Cutoff       Linear
  id          18.0120p    -24.0120p     18.0120p    -15.2758f      6.0153p
  ibs          0.           0.           0.           0.           0.     
  ibd          0.           0.           0.           0.           0.     
  vgs          9.7342n     -3.0000       9.7342n   -178.2073n      3.0000 
  vds          3.0000     -39.3468n      3.0000      -3.0000       9.7342n
  vbs          0.           0.           0.           0.           0.     
  vth        502.2058m   -827.4217m    502.2058m   -746.9370m    578.3298m
  vdsat       37.4830m     -1.5502      37.4830m    -40.8456m    863.9024m
  vod       -502.2058m     -2.1726    -502.2058m    746.9368m      2.4217 
  beta       497.2155u    602.8658u    497.2155u    821.5476u    415.8115u
  gam eff    597.0299m    516.8703m    597.0299m    516.8703m    597.0299m
  gm         385.0489p      4.7877p    385.0489p    418.6591f      1.3526p
  gds         15.1168p    610.2650u     15.1168p     13.3310f    617.9546u
  gmb        143.6921p      2.0340p    143.6921p    141.0166f    549.4477f
  cdtot      226.3808a      3.1585f    226.3808a    792.6301a    761.9825a
  cgtot      802.0414a      6.8332f    802.0414a      3.3703f      1.5680f
  cstot      226.3923a      1.6484f    226.3923a    792.6301a    408.0297a
  cbtot      367.6609a      1.3866f    367.6609a      1.8316f    365.7175a
  cgs        216.4538a      3.4150f    216.4538a    790.4227a    776.6718a
  cgd        217.9332a      3.2300f    217.9332a    748.2929a    746.1148a



 subckt     xfadc.xi28   xfadc.xi28   xfadc.xi28   xfadc.xi28   xfadc.xi28
 element  131:mma      131:mmb      131:mmc      131:mmd      132:mma     
 model      0:cmosp      0:cmosp      0:cmosn      0:cmosn      0:cmosp   
 region         Linear       Cutoff       Cutoff       Linear       Cutoff
  id        -360.1799p   -1.735e-20    270.1799p    315.1799p   -167.5246f
  ibs          0.           0.           0.           0.           0.     
  ibd          0.           0.           0.           0.           0.     
  vgs         -3.0000     -39.3468n      4.9076n      3.0000     -39.3468n
  vds        -53.2161n    -53.2161n      3.0000      34.0025n     -3.0000 
  vbs          0.           0.         -34.0025n      0.           0.     
  vth       -827.7387m   -827.7387m    502.2058m    578.3298m   -747.2540m
  vdsat       -1.5439     -40.6212m     37.4830m    863.9024m    -40.6150m
  vod         -2.1723     827.7387m   -502.2058m      2.4217     747.2540m
  beta         6.7413m      8.9711m      7.4582m      6.2372m      9.1199m
  gam eff    515.7690m    515.7690m    597.0299m    597.0299m    515.7690m
  gm          72.1179p    4.756e-19      5.7757n     70.8703p      4.5913p
  gds          6.7683m    326.0657f    226.7514p      9.2693m    146.2004f
  gmb         30.7470p    1.649e-19      2.1554n     28.7892p      1.5513p
  cdtot       35.2165f      8.7995f      3.3957f     11.4297f      8.7995f
  cgtot       75.8601f     39.0751f     12.0306f     23.5199f     37.4226f
  cstot       18.1769f      8.7995f      3.3959f      6.1204f      8.7995f
  cbtot       15.3952f     22.1619f      5.5149f      5.4858f     20.3218f
  cgs         37.9735f      8.6453f      3.2468f     11.6501f      8.7937f
  cgd         35.8554f      8.2679f      3.2690f     11.1917f      8.3071f



 subckt     xfadc.xi28   xfadc.xi28   xfadc.xi28   xfadc.xi28   xfadc.xi28
 element  132:mmb      132:mmc      132:mmd      133:mm4      133:mm3     
 model      0:cmosp      0:cmosn      0:cmosn      0:cmosp      0:cmosn   
 region         Cutoff       Linear       Linear       Cutoff       Linear
  id        -167.5247f    180.3350p    180.3350p    -15.2758f      6.0153p
  ibs          0.           0.           0.           0.           0.     
  ibd          0.           0.           0.           0.           0.     
  vgs        -53.2161n      3.0000       3.0000    -178.2072n      3.0000 
  vds         -3.0000      19.4550n     19.4550n     -3.0000       9.7342n
  vbs          0.         -19.4550n      0.           0.           0.     
  vth       -747.2540m    578.3298m    578.3298m   -746.9370m    578.3298m
  vdsat      -40.6150m    863.9024m    863.9024m    -40.8456m    863.9024m
  vod        747.2540m      2.4217       2.4217     746.9368m      2.4217 
  beta         9.1199m      6.2372m      6.2372m    821.5476u    415.8115u
  gam eff    515.7690m    597.0299m    597.0299m    516.8703m    597.0299m
  gm           4.5913p     40.5495p     40.5495p    418.6591f      1.3526p
  gds        146.2005f      9.2693m      9.2693m     13.3310f    617.9546u
  gmb          1.5513p     16.4722p     16.4722p    141.0166f    549.4477f
  cdtot        8.7995f     11.4297f     11.4297f    792.6301a    761.9825a
  cgtot       37.4226f     23.5199f     23.5199f      3.3703f      1.5680f
  cstot        8.7995f      6.1204f      6.1204f    792.6301a    408.0297a
  cbtot       20.3218f      5.4858f      5.4858f      1.8316f    365.7175a
  cgs          8.7937f     11.6501f     11.6501f    790.4227a    776.6718a
  cgd          8.3071f     11.1917f     11.1917f    748.2929a    746.1148a



 subckt     xfadc.xi28   xfadc.xi28   xfadc.xi28   xfadc.xi28   xfadc.xi28
 element  134:mm4      134:mm3      135:mm4      135:mm3      136:mm4     
 model      0:cmosp      0:cmosn      0:cmosp      0:cmosn      0:cmosp   
 region         Linear       Cutoff       Linear       Cutoff       Cutoff
  id         -24.0120p     18.0120p    -24.0120p     18.0120p    -15.2758f
  ibs          0.           0.           0.           0.           0.     
  ibd          0.           0.           0.           0.           0.     
  vgs         -3.0000       9.7342n     -3.0000       9.7342n   -178.2073n
  vds        -39.3468n      3.0000     -39.3468n      3.0000      -3.0000 
  vbs          0.           0.           0.           0.           0.     
  vth       -827.4217m    502.2058m   -827.4217m    502.2058m   -746.9370m
  vdsat       -1.5502      37.4830m     -1.5502      37.4830m    -40.8456m
  vod         -2.1726    -502.2058m     -2.1726    -502.2058m    746.9368m
  beta       602.8658u    497.2155u    602.8658u    497.2155u    821.5476u
  gam eff    516.8703m    597.0299m    516.8703m    597.0299m    516.8703m
  gm           4.7877p    385.0489p      4.7877p    385.0489p    418.6591f
  gds        610.2650u     15.1168p    610.2650u     15.1168p     13.3310f
  gmb          2.0340p    143.6921p      2.0340p    143.6921p    141.0166f
  cdtot        3.1585f    226.3808a      3.1585f    226.3808a    792.6301a
  cgtot        6.8332f    802.0414a      6.8332f    802.0414a      3.3703f
  cstot        1.6484f    226.3923a      1.6484f    226.3923a    792.6301a
  cbtot        1.3866f    367.6609a      1.3866f    367.6609a      1.8316f
  cgs          3.4150f    216.4538a      3.4150f    216.4538a    790.4227a
  cgd          3.2300f    217.9332a      3.2300f    217.9332a    748.2929a



 subckt     xfadc.xi28   xfadc.xi29   xfadc.xi29   xfadc.xi29   xfadc.xi29
 element  136:mm3      137:mma      137:mmb      137:mmc      137:mmd     
 model      0:cmosn      0:cmosp      0:cmosp      0:cmosn      0:cmosn   
 region         Linear     Saturati       Cutoff     Saturati       Linear
  id           6.0153p     -1.4927m    -45.3167f      1.4927m      1.4927m
  ibs          0.           0.           0.           0.           0.     
  ibd          0.           0.           0.           0.           0.     
  vgs          3.0000      -1.4519     -39.3468n      1.3783       3.0000 
  vds          9.7342n     -1.5471      -1.5471       1.2831     169.8080m
  vbs          0.           0.           0.        -169.8080m      0.     
  vth        578.3298m   -786.2318m   -786.2318m    590.9296m    574.0210m
  vdsat      863.9024m   -526.2196m    -40.6180m    411.6534m    864.5600m
  vod          2.4217    -665.6306m    786.2318m    787.3999m      2.4260 
  beta       415.8115u      8.4440m      9.0490m      7.2079m      6.2422m
  gam eff    597.0299m    515.7690m    515.7690m    596.1518m    597.0299m
  gm           1.3526p      3.2981m      1.2420p      2.8300m    365.3514u
  gds        617.9546u    234.8353u     42.5993f    162.2871u      8.3170m
  gmb        549.4477f    696.1152u    423.4173f    652.8914u    140.6199u
  cdtot      761.9825a      8.2840f      8.7995f      3.2539f     10.9651f
  cgtot        1.5680f     65.7392f     38.1750f     20.7150f     23.4929f
  cstot      408.0297a     33.2621f      8.7995f     10.5170f      6.3607f
  cbtot      365.7175a     12.4096f     21.1611f      4.1127f      5.1041f
  cgs        776.6718a     54.8649f      8.7247f     16.3739f     12.0733f
  cgd        746.1148a      7.5267f      8.2893f      3.0378f     10.7286f



 subckt     xfadc.xi29   xfadc.xi29   xfadc.xi29   xfadc.xi29   xfadc.xi29
 element  138:mma      138:mmb      138:mmc      138:mmd      139:mm4     
 model      0:cmosp      0:cmosp      0:cmosn      0:cmosn      0:cmosp   
 region         Cutoff     Saturati       Linear     Saturati       Cutoff
  id         -41.4182f     -1.7879m      1.7879m      1.7879m    -15.2758f
  ibs          0.           0.           0.           0.           0.     
  ibd          0.           0.           0.           0.           0.     
  vgs        -39.3468n     -1.5471       1.8980       1.4529    -178.2072n
  vds         -1.4519      -1.4519     446.1073m      1.1020      -3.0000 
  vbs          0.           0.          -1.1020       0.           0.     
  vth       -788.7878m   -788.7878m    806.8878m    550.3662m   -746.9370m
  vdsat      -40.6182m   -590.4303m    524.8153m    444.2713m    -40.8456m
  vod        788.7878m   -758.3487m      1.0911     902.4973m    746.9368m
  beta         9.0442m      8.3452m      6.7995m      7.2079m    821.5476u
  gam eff    515.7690m    515.7690m    592.2791m    597.0299m    516.8703m
  gm           1.1352p      3.4116m      1.7113m      2.8838m    418.6591f
  gds         39.2838f    287.7772u      2.6024m    225.1191u     13.3310f
  gmb        387.2121f    712.5734u    317.2294u    715.7452u    141.0166f
  cdtot        8.7995f      8.2875f      6.3955f      3.2659f    792.6301a
  cgtot       38.2273f     65.7321f     22.2527f     20.7798f      3.3703f
  cstot        8.7995f     33.2579f      8.7830f     10.6794f    792.6301a
  cbtot       21.2193f     12.2779f      3.3429f      4.3668f      1.8316f
  cgs          8.7200f     54.9780f     14.9781f     16.5049f    790.4227a
  cgd          8.2880f      7.5300f      6.3675f      3.0553f    748.2929a



 subckt     xfadc.xi29   xfadc.xi29   xfadc.xi29   xfadc.xi29   xfadc.xi29
 element  139:mm3      140:mm4      140:mm3      141:mm4      141:mm3     
 model      0:cmosn      0:cmosp      0:cmosn      0:cmosp      0:cmosn   
 region         Linear       Linear       Cutoff       Linear       Cutoff
  id           6.0153p    -24.0120p     18.0120p    -24.0120p     18.0120p
  ibs          0.           0.           0.           0.           0.     
  ibd          0.           0.           0.           0.           0.     
  vgs          3.0000      -3.0000       9.7342n     -3.0000       9.7342n
  vds          9.7342n    -39.3468n      3.0000     -39.3468n      3.0000 
  vbs          0.           0.           0.           0.           0.     
  vth        578.3298m   -827.4217m    502.2058m   -827.4217m    502.2058m
  vdsat      863.9024m     -1.5502      37.4830m     -1.5502      37.4830m
  vod          2.4217      -2.1726    -502.2058m     -2.1726    -502.2058m
  beta       415.8115u    602.8658u    497.2155u    602.8658u    497.2155u
  gam eff    597.0299m    516.8703m    597.0299m    516.8703m    597.0299m
  gm           1.3526p      4.7877p    385.0489p      4.7877p    385.0489p
  gds        617.9546u    610.2650u     15.1168p    610.2650u     15.1168p
  gmb        549.4477f      2.0340p    143.6921p      2.0340p    143.6921p
  cdtot      761.9825a      3.1585f    226.3808a      3.1585f    226.3808a
  cgtot        1.5680f      6.8332f    802.0414a      6.8332f    802.0414a
  cstot      408.0297a      1.6484f    226.3923a      1.6484f    226.3923a
  cbtot      365.7175a      1.3866f    367.6609a      1.3866f    367.6609a
  cgs        776.6718a      3.4150f    216.4538a      3.4150f    216.4538a
  cgd        746.1148a      3.2300f    217.9332a      3.2300f    217.9332a



 subckt     xfadc.xi29   xfadc.xi29   xfadc.xi47   xfadc.xi47   xfadc.xi47
 element  142:mm4      142:mm3      143:mm4      143:mm3      144:mm4     
 model      0:cmosp      0:cmosn      0:cmosp      0:cmosn      0:cmosp   
 region         Cutoff       Linear       Cutoff       Linear       Linear
  id         -15.2758f      6.0153p    -15.2757f      6.0153p    -24.0120p
  ibs          0.           0.           0.           0.           0.     
  ibd          0.           0.           0.           0.           0.     
  vgs       -178.2073n      3.0000     -53.2161n      3.0000      -3.0000 
  vds         -3.0000       9.7342n     -3.0000       9.7342n    -39.3469n
  vbs          0.           0.           0.           0.           0.     
  vth       -746.9370m    578.3298m   -746.9370m    578.3298m   -827.4217m
  vdsat      -40.8456m    863.9024m    -40.8456m    863.9024m     -1.5502 
  vod        746.9368m      2.4217     746.9369m      2.4217      -2.1726 
  beta       821.5476u    415.8115u    821.5476u    415.8115u    602.8658u
  gam eff    516.8703m    597.0299m    516.8703m    597.0299m    516.8703m
  gm         418.6591f      1.3526p    418.6576f      1.3526p      4.7877p
  gds         13.3310f    617.9546u     13.3309f    617.9547u    610.2650u
  gmb        141.0166f    549.4477f    141.0161f    549.4476f      2.0340p
  cdtot      792.6301a    761.9825a    792.6301a    761.9825a      3.1585f
  cgtot        3.3703f      1.5680f      3.3703f      1.5680f      6.8332f
  cstot      792.6301a    408.0297a    792.6301a    408.0297a      1.6484f
  cbtot        1.8316f    365.7175a      1.8316f    365.7175a      1.3866f
  cgs        790.4227a    776.6718a    790.4227a    776.6718a      3.4150f
  cgd        748.2929a    746.1148a    748.2929a    746.1148a      3.2300f



 subckt     xfadc.xi47   xfadc.xi46   xfadc.xi46   xfadc.xi46   xfadc.xi46
 element  144:mm3      145:mm4      145:mm3      146:mm4      146:mm3     
 model      0:cmosn      0:cmosp      0:cmosn      0:cmosp      0:cmosn   
 region         Cutoff       Cutoff       Linear       Cutoff       Linear
  id          18.0120p    -15.2757f      6.0153p    -15.2758f      6.0153p
  ibs          0.           0.           0.           0.           0.     
  ibd          0.           0.           0.           0.           0.     
  vgs         51.6624n    -48.4913n      3.0000    -203.4147n      3.0000 
  vds          3.0000      -3.0000       9.7342n     -3.0000       9.7342n
  vbs          0.           0.           0.           0.           0.     
  vth        502.2058m   -746.9370m    578.3298m   -746.9370m    578.3298m
  vdsat       37.4830m    -40.8456m    863.9024m    -40.8456m    863.9024m
  vod       -502.2058m    746.9369m      2.4217     746.9368m      2.4217 
  beta       497.2155u    821.5476u    415.8115u    821.5476u    415.8115u
  gam eff    597.0299m    516.8703m    597.0299m    516.8703m    597.0299m
  gm         385.0492p    418.6576f      1.3526p    418.6594f      1.3526p
  gds         15.1168p     13.3309f    617.9547u     13.3310f    617.9546u
  gmb        143.6922p    141.0161f    549.4476f    141.0167f    549.4477f
  cdtot      226.3808a    792.6301a    761.9825a    792.6301a    761.9825a
  cgtot      802.0414a      3.3703f      1.5680f      3.3703f      1.5680f
  cstot      226.3923a    792.6301a    408.0297a    792.6301a    408.0297a
  cbtot      367.6609a      1.8316f    365.7175a      1.8316f    365.7175a
  cgs        216.4538a    790.4227a    776.6718a    790.4227a    776.6718a
  cgd        217.9332a    748.2929a    746.1148a    748.2929a    746.1148a



 subckt     xfadc.xi49   xfadc.xi49   xfadc.xi49   xfadc.xi49
 element  147:mm4      147:mm3      148:mm4      148:mm3     
 model      0:cmosp      0:cmosn      0:cmosp      0:cmosn   
 region         Linear       Cutoff       Linear       Cutoff
  id         -24.0120p     18.0120p    -24.0120p     18.0120p
  ibs          0.           0.           0.           0.     
  ibd          0.           0.           0.           0.     
  vgs         -3.0000      38.9101n     -3.0000       9.7342n
  vds        -39.3469n      3.0000     -39.3468n      3.0000 
  vbs          0.           0.           0.           0.     
  vth       -827.4217m    502.2058m   -827.4217m    502.2058m
  vdsat       -1.5502      37.4830m     -1.5502      37.4830m
  vod         -2.1726    -502.2058m     -2.1726    -502.2058m
  beta       602.8658u    497.2155u    602.8658u    497.2155u
  gam eff    516.8703m    597.0299m    516.8703m    597.0299m
  gm           4.7877p    385.0491p      4.7877p    385.0489p
  gds        610.2650u     15.1168p    610.2650u     15.1168p
  gmb          2.0340p    143.6922p      2.0340p    143.6921p
  cdtot        3.1585f    226.3808a      3.1585f    226.3808a
  cgtot        6.8332f    802.0414a      6.8332f    802.0414a
  cstot        1.6484f    226.3923a      1.6484f    226.3923a
  cbtot        1.3866f    367.6609a      1.3866f    367.6609a
  cgs          3.4150f    216.4538a      3.4150f    216.4538a
  cgd          3.2300f    217.9332a      3.2300f    217.9332a



 ******  
 *4 bit flash adc — renew

  ******  transient analysis tnom=  25.000 temp=  25.000 *****
   tot_power=  2.8511E-04  from=  0.0000E+00     to=  1.0000E-05

          ***** job concluded
1****** HSPICE -- B-2008.09 32-BIT (Aug 26 2008) winnt ******                   
 ******  
 *4 bit flash adc — renew

  ******  job statistics summary tnom=  25.000 temp=  25.000 *****

  ******  HSPICE Threads Information  ******
  Command Line Threads Count:                      1
  Available CPU Count:                             4
  Actual Model Evaluation(Load) Threads Count:     1
  Actual Solver Threads Count:                     1


  ******  Circuit Statistics  ******
  # nodes       =     300  # elements   =     561
  # resistors   =      32  # capacitors =       0  # inductors   =       0
  # mutual_inds =       0  # vccs       =       0  # vcvs        =       0
  # cccs        =       0  # ccvs       =       0  # volt_srcs   =       5
  # curr_srcs   =       0  # diodes     =       0  # bjts        =       0
  # jfets       =       0  # mosfets    =     524  # U elements  =       0
  # T elements  =       0  # W elements =       0  # B elements  =       0
  # S elements  =       0  # P elements =       0  # va device   =       0


  ******  Runtime Statistics (seconds)  ******

  analysis           time    # points   tot. iter  conv.iter
  op point           0.11           1          68
  transient          7.57        2001       11255        3582 rev=       159
  readin             0.14
  errchk             0.03
  setup              0.03
  output             0.00


           total memory used         3852  kbytes
           total cpu time            7.93 seconds
           total elapsed time           8 seconds
           job started at     21:10:32 06/26/2018
           job ended   at     21:10:40 06/26/2018


 Init: hspice initialization file: C:\synopsys\Hspice_B-2008.09\hspice.ini
