$DATA1 SOURCE='HSPICE' VERSION='B-2008.09 32-BIT'
.TITLE '*twostageop-apsubthresholdhighgain'
 gb               temper           alter#            
  2.173e+05         25.0000           1.0000         
