***** HSPICE -- J-2014.09-SP2-2 64-BIT (Apr 17 2015) win64 ******
 Input File: constant gm current (18ua).sp
