$DATA1 SOURCE='HSPICE' VERSION='B-2008.09 32-BIT'
.TITLE '*twostageultalowpowerwcurref'
 gb               temper           alter#            
    failed          25.0000           2.0000         
