$DATA1 SOURCE='HSPICE' VERSION='B-2008.09 32-BIT'
.TITLE 'twostageamplifier_step4'
 gb               temper           alter#            
  7.430e+06         25.0000           3.0000         
