$DATA1 SOURCE='HSPICE' VERSION='B-2008.09 32-BIT'
.TITLE 'twostageamplifier_step4'
 gb               temper           alter#            
  5.241e+06         25.0000           1.0000         
